<?xml version="1.0" encoding="UTF-8"?>

<routes>

	<route id="route0" edges="start1 end1" />
    <route id="route1" edges="start1 end2" />
    <route id="route2" edges="start2 end1" />
    <route id="route3" edges="start2 end2" />


    <vType id="conventional" vClass="passenger" tau="5.5" minGap="7.5" carFollowModel="IDM" maxSpeed="40.00"/>
    <vType id="conventional_human" vClass="passenger" tau="5.5" minGap="7.5" carFollowModel="IDM" maxSpeed="40.00" color="52,128,235"/>
    <!--vType id="conventional_human" vClass="passenger" tau="3.5" minGap="5.5" carFollowModel="IDM" maxSpeed="28.00" color="52,128,235"/-->
    <vType id="non_merging" vClass="passenger" tau="5.5" minGap="7.5" carFollowModel="IDM" maxSpeed="40.00"/>
    <vType id="merging" vClass="passenger" carFollowModel="IDM" emergencyDecel="4.5" length="5" tau="0.1" maxSpeed="40.00" color="1,1,0" accel="10.3" decel="1.7" sigma="0.0" minGap="2.0"/>
    <!--vType id="connected" vClass="passenger" tau="2.5" minGap="5.5" carFollowModel="IDM" maxSpeed="28.00" lcCooperative="0.0" color="1,1,0" lcStrategic="1.0" accel="3.0" decel="1.5" emergencyDecel="4.5" lcSpeedGain="0.3" sigma="0.0" lcKeepRight="0.3"-->
    <vType id="connected" vClass="passenger" tau="5.5" minGap="7.5" carFollowModel="IDM" maxSpeed="1.00" emergencyDecel="4.5"/>
    <vType id="routeByDistance" maxSpeed="1"/>
    <vType id="connected_pCatchupFollower" vClass="passenger" carFollowModel="IDM" emergencyDecel="4.5" length="5" tau="0.1" maxSpeed="40.00" color="1,1,0" accel="10.3" decel="1.7" sigma="0.0" minGap="2.0"/>
    <vType id="connected_pCatchup" vClass="passenger" tau="0.1" carFollowModel="IDM" emergencyDecel="4.5" maxSpeed="40.00" color="0,0.8,0.3" accel="10.3" decel="1.7" sigma="0.0" minGap="2.0"/>
    <vType id="connected_pFollower" vClass="passenger" tau="0.1" carFollowModel="IDM" maxSpeed="40.00" color="1,1,0" accel="10.3" decel="1.7" sigma="0.0"  minGap="2.0" emergencyDecel="4.5"/>
    <vType id="connected_pLeader" vClass="passenger" length="5" carFollowModel="IDM" maxSpeed="40.00" lcCooperative="0.0" color="1,1,0" lcStrategic="1.0" accel="13.0" decel="1.5" emergencyDecel="4.5" lcSpeedGain="0.3" sigma="0.0" lcKeepRight="0.3"/>

    
	
    <trip id="start1Toend1_0" type="conventional"  from="start1" to="end1" depart="0.000000" />
    <trip id="start2Toend1_0" type="conventional"  from="start2" to="end1" depart="0.000000" />
    <trip id="start1Toend1_1" type="conventional"  from="start1" to="end1" depart="1.427168" />
    <trip id="start1Toend2_0" type="conventional"  from="start1" to="end2" depart="10.000000" />
    <trip id="start2Toend2_0" type="conventional"  from="start2" to="end2" depart="10.000000" />
    <trip id="start2Toend1_1" type="conventional"  from="start2" to="end1" depart="14.388507" />
    <trip id="start1Toend1_2" type="conventional"  from="start1" to="end1" depart="14.804909" />
    <trip id="start2Toend2_1" type="conventional"  from="start2" to="end2" depart="16.377194" />
    <trip id="start2Toend1_2" type="conventional"  from="start2" to="end1" depart="18.812585" />
    <trip id="start1Toend2_1" type="conventional"  from="start1" to="end2" depart="25.995550" />
    <trip id="start2Toend1_3" type="conventional"  from="start2" to="end1" depart="36.538095" />
    <trip id="start2Toend1_4" type="conventional"  from="start2" to="end1" depart="48.539774" />
    <trip id="start2Toend2_2" type="conventional"  from="start2" to="end2" depart="49.454958" />
    <trip id="start2Toend1_5" type="conventional"  from="start2" to="end1" depart="61.302485" />
    <trip id="start1Toend1_3" type="conventional"  from="start1" to="end1" depart="62.207610" />
    <trip id="start1Toend1_4" type="conventional"  from="start1" to="end1" depart="67.962706" />
    <trip id="start2Toend1_6" type="conventional"  from="start2" to="end1" depart="71.300732" />
    <trip id="start1Toend1_5" type="conventional"  from="start1" to="end1" depart="79.350966" />
    <trip id="start1Toend1_6" type="conventional"  from="start1" to="end1" depart="82.389726" />
    <trip id="start1Toend1_7" type="conventional"  from="start1" to="end1" depart="86.692878" />
    <trip id="start1Toend1_8" type="conventional"  from="start1" to="end1" depart="90.686463" />
    <trip id="start1Toend1_9" type="conventional"  from="start1" to="end1" depart="90.896987" />
    <trip id="start2Toend1_7" type="conventional"  from="start2" to="end1" depart="94.061058" />
    <trip id="start2Toend1_8" type="conventional"  from="start2" to="end1" depart="103.583743" />
    <trip id="start1Toend2_2" type="conventional"  from="start1" to="end2" depart="108.904652" />
    <trip id="start2Toend1_9" type="conventional"  from="start2" to="end1" depart="118.873114" />
    <trip id="start1Toend2_3" type="conventional"  from="start1" to="end2" depart="129.432473" />
    <trip id="start2Toend2_3" type="conventional"  from="start2" to="end2" depart="134.319180" />
    <trip id="start1Toend2_4" type="conventional"  from="start1" to="end2" depart="134.843148" />
    <trip id="start1Toend1_10" type="conventional"  from="start1" to="end1" depart="140.220638" />
    <trip id="start2Toend2_4" type="conventional"  from="start2" to="end2" depart="145.127905" />
    <trip id="start2Toend1_10" type="conventional"  from="start2" to="end1" depart="147.783843" />
    <trip id="start2Toend2_5" type="conventional"  from="start2" to="end2" depart="149.138817" />
    <trip id="start2Toend2_6" type="conventional"  from="start2" to="end2" depart="152.069873" />
    <trip id="start2Toend1_11" type="conventional"  from="start2" to="end1" depart="155.444398" />
    <trip id="start2Toend1_12" type="conventional"  from="start2" to="end1" depart="157.855092" />
    <trip id="start1Toend1_11" type="conventional"  from="start1" to="end1" depart="158.161086" />
    <trip id="start1Toend1_12" type="conventional"  from="start1" to="end1" depart="161.010832" />
    <trip id="start2Toend2_7" type="conventional"  from="start2" to="end2" depart="166.536044" />
    <trip id="start2Toend1_13" type="conventional"  from="start2" to="end1" depart="172.702617" />
    <trip id="start1Toend2_5" type="conventional"  from="start1" to="end2" depart="177.426013" />
    <trip id="start1Toend1_13" type="conventional"  from="start1" to="end1" depart="177.946969" />
    <trip id="start2Toend2_8" type="conventional"  from="start2" to="end2" depart="179.799009" />
    <trip id="start2Toend2_9" type="conventional"  from="start2" to="end2" depart="181.140016" />
    <trip id="start1Toend1_14" type="conventional"  from="start1" to="end1" depart="181.416488" />
    <trip id="start1Toend2_6" type="conventional"  from="start1" to="end2" depart="181.481798" />
    <trip id="start2Toend1_14" type="conventional"  from="start2" to="end1" depart="182.945357" />
    <trip id="start1Toend1_15" type="conventional"  from="start1" to="end1" depart="186.732387" />
    <trip id="start2Toend1_15" type="conventional"  from="start2" to="end1" depart="193.711844" />
    <trip id="start2Toend1_16" type="conventional"  from="start2" to="end1" depart="197.899193" />
    <trip id="start1Toend2_7" type="conventional"  from="start1" to="end2" depart="203.793140" />
    <trip id="start2Toend2_10" type="conventional"  from="start2" to="end2" depart="223.147871" />
    <trip id="start2Toend1_17" type="conventional"  from="start2" to="end1" depart="223.938736" />
    <trip id="start1Toend1_16" type="conventional"  from="start1" to="end1" depart="235.818486" />
    <trip id="start1Toend2_8" type="conventional"  from="start1" to="end2" depart="245.411867" />
    <trip id="start1Toend1_17" type="conventional"  from="start1" to="end1" depart="249.649747" />
    <trip id="start1Toend1_18" type="conventional"  from="start1" to="end1" depart="250.366678" />
    <trip id="start1Toend2_9" type="conventional"  from="start1" to="end2" depart="250.480178" />
    <trip id="start1Toend1_19" type="conventional"  from="start1" to="end1" depart="271.184223" />
    <trip id="start1Toend2_10" type="conventional"  from="start1" to="end2" depart="274.381138" />
    <trip id="start2Toend2_11" type="conventional"  from="start2" to="end2" depart="276.127965" />
    <trip id="start1Toend1_20" type="conventional"  from="start1" to="end1" depart="277.175755" />
    <trip id="start1Toend2_11" type="conventional"  from="start1" to="end2" depart="278.139973" />
    <trip id="start1Toend2_12" type="conventional"  from="start1" to="end2" depart="280.456503" />
    <trip id="start2Toend2_12" type="conventional"  from="start2" to="end2" depart="283.520563" />
    <trip id="start2Toend2_13" type="conventional"  from="start2" to="end2" depart="289.454771" />
    <trip id="start1Toend1_21" type="conventional"  from="start1" to="end1" depart="292.794439" />
    <trip id="start2Toend2_14" type="conventional"  from="start2" to="end2" depart="294.357464" />
    <trip id="start2Toend2_15" type="conventional"  from="start2" to="end2" depart="295.476020" />
    <trip id="start1Toend2_13" type="conventional"  from="start1" to="end2" depart="296.740081" />
    <trip id="start2Toend1_18" type="conventional"  from="start2" to="end1" depart="309.509772" />
    <trip id="start2Toend1_19" type="conventional"  from="start2" to="end1" depart="309.572338" />
    <trip id="start2Toend1_20" type="conventional"  from="start2" to="end1" depart="317.647595" />
    <trip id="start1Toend2_14" type="conventional"  from="start1" to="end2" depart="323.008739" />
    <trip id="start2Toend1_21" type="conventional"  from="start2" to="end1" depart="329.031953" />
    <trip id="start2Toend1_22" type="conventional"  from="start2" to="end1" depart="331.799412" />
    <trip id="start1Toend1_22" type="conventional"  from="start1" to="end1" depart="335.715553" />
    <trip id="start1Toend1_23" type="conventional"  from="start1" to="end1" depart="335.974336" />
    <trip id="start2Toend1_23" type="conventional"  from="start2" to="end1" depart="341.710753" />
    <trip id="start2Toend1_24" type="conventional"  from="start2" to="end1" depart="348.101919" />
    <trip id="start2Toend1_25" type="conventional"  from="start2" to="end1" depart="349.042390" />
    <trip id="start1Toend2_15" type="conventional"  from="start1" to="end2" depart="351.657373" />
    <trip id="start1Toend2_16" type="conventional"  from="start1" to="end2" depart="353.283255" />
    <trip id="start2Toend1_26" type="conventional"  from="start2" to="end1" depart="359.825381" />
    <trip id="start1Toend1_24" type="conventional"  from="start1" to="end1" depart="360.866547" />
    <trip id="start1Toend2_17" type="conventional"  from="start1" to="end2" depart="364.746217" />
    <trip id="start2Toend1_27" type="conventional"  from="start2" to="end1" depart="367.791840" />
    <trip id="start1Toend1_25" type="conventional"  from="start1" to="end1" depart="374.790508" />
    <trip id="start2Toend2_16" type="conventional"  from="start2" to="end2" depart="375.971588" />
    <trip id="start2Toend2_17" type="conventional"  from="start2" to="end2" depart="387.128509" />
    <trip id="start2Toend1_28" type="conventional"  from="start2" to="end1" depart="398.475240" />
    <trip id="start2Toend2_18" type="conventional"  from="start2" to="end2" depart="406.398933" />
    <trip id="start2Toend1_29" type="conventional"  from="start2" to="end1" depart="407.247750" />
    <trip id="start1Toend2_18" type="conventional"  from="start1" to="end2" depart="407.355593" />
    <trip id="start1Toend2_19" type="conventional"  from="start1" to="end2" depart="409.810452" />
    <trip id="start1Toend2_20" type="conventional"  from="start1" to="end2" depart="410.489579" />
    <trip id="start2Toend1_30" type="conventional"  from="start2" to="end1" depart="421.688464" />
    <trip id="start1Toend1_26" type="conventional"  from="start1" to="end1" depart="422.482856" />
    <trip id="start2Toend2_19" type="conventional"  from="start2" to="end2" depart="426.548456" />
    <trip id="start2Toend1_31" type="conventional"  from="start2" to="end1" depart="432.230154" />
    <trip id="start1Toend2_21" type="conventional"  from="start1" to="end2" depart="438.590589" />
    <trip id="start2Toend1_32" type="conventional"  from="start2" to="end1" depart="443.007887" />
    <trip id="start1Toend2_22" type="conventional"  from="start1" to="end2" depart="454.607537" />
    <trip id="start1Toend2_23" type="conventional"  from="start1" to="end2" depart="462.460336" />
    <trip id="start2Toend1_33" type="conventional"  from="start2" to="end1" depart="471.302941" />
    <trip id="start2Toend1_34" type="conventional"  from="start2" to="end1" depart="478.684834" />
    <trip id="start2Toend2_20" type="conventional"  from="start2" to="end2" depart="478.704210" />
    <trip id="start2Toend1_35" type="conventional"  from="start2" to="end1" depart="479.264429" />
    <trip id="start2Toend2_21" type="conventional"  from="start2" to="end2" depart="480.137664" />
    <trip id="start2Toend2_22" type="conventional"  from="start2" to="end2" depart="487.051853" />
    <trip id="start2Toend1_36" type="conventional"  from="start2" to="end1" depart="488.070839" />
    <trip id="start2Toend1_37" type="conventional"  from="start2" to="end1" depart="488.187807" />
    <trip id="start2Toend2_23" type="conventional"  from="start2" to="end2" depart="489.054530" />
    <trip id="start1Toend1_27" type="conventional"  from="start1" to="end1" depart="490.814325" />
    <trip id="start1Toend2_24" type="conventional"  from="start1" to="end2" depart="490.900484" />
    <trip id="start2Toend2_24" type="conventional"  from="start2" to="end2" depart="494.411814" />
    <trip id="start1Toend1_28" type="conventional"  from="start1" to="end1" depart="496.002821" />
    <trip id="start1Toend2_25" type="conventional"  from="start1" to="end2" depart="498.402928" />
    <trip id="start2Toend1_38" type="conventional"  from="start2" to="end1" depart="501.147617" />
    <trip id="start1Toend2_26" type="conventional"  from="start1" to="end2" depart="511.273095" />
    <trip id="start2Toend1_39" type="conventional"  from="start2" to="end1" depart="512.580152" />
    <trip id="start1Toend1_29" type="conventional"  from="start1" to="end1" depart="526.009737" />
    <trip id="start2Toend1_40" type="conventional"  from="start2" to="end1" depart="530.107491" />
    <trip id="start2Toend2_25" type="conventional"  from="start2" to="end2" depart="540.268895" />
    <trip id="start2Toend2_26" type="conventional"  from="start2" to="end2" depart="543.261096" />
    <trip id="start1Toend1_30" type="conventional"  from="start1" to="end1" depart="546.733380" />
    <trip id="start1Toend1_31" type="conventional"  from="start1" to="end1" depart="549.043817" />
    <trip id="start2Toend1_41" type="conventional"  from="start2" to="end1" depart="557.361911" />
    <trip id="start1Toend2_27" type="conventional"  from="start1" to="end2" depart="562.647413" />
    <trip id="start1Toend1_32" type="conventional"  from="start1" to="end1" depart="568.533006" />
    <trip id="start1Toend1_33" type="conventional"  from="start1" to="end1" depart="575.775704" />
    <trip id="start1Toend1_34" type="conventional"  from="start1" to="end1" depart="578.116647" />
    <trip id="start1Toend1_35" type="conventional"  from="start1" to="end1" depart="583.061879" />
    <trip id="start2Toend2_27" type="conventional"  from="start2" to="end2" depart="592.615556" />
    <trip id="start2Toend1_42" type="conventional"  from="start2" to="end1" depart="615.020609" />
    <trip id="start2Toend2_28" type="conventional"  from="start2" to="end2" depart="621.716280" />
    <trip id="start1Toend2_28" type="conventional"  from="start1" to="end2" depart="624.363524" />
    <trip id="start1Toend2_29" type="conventional"  from="start1" to="end2" depart="628.571663" />
    <trip id="start1Toend1_36" type="conventional"  from="start1" to="end1" depart="630.042772" />
    <trip id="start1Toend1_37" type="conventional"  from="start1" to="end1" depart="630.535545" />
    <trip id="start2Toend2_29" type="conventional"  from="start2" to="end2" depart="636.232271" />
    <trip id="start1Toend2_30" type="conventional"  from="start1" to="end2" depart="637.632407" />
    <trip id="start1Toend1_38" type="conventional"  from="start1" to="end1" depart="649.958973" />
    <trip id="start2Toend2_30" type="conventional"  from="start2" to="end2" depart="653.682674" />
    <trip id="start1Toend1_39" type="conventional"  from="start1" to="end1" depart="655.802484" />
    <trip id="start2Toend2_31" type="conventional"  from="start2" to="end2" depart="660.724803" />
    <trip id="start2Toend2_32" type="conventional"  from="start2" to="end2" depart="662.422311" />
    <trip id="start1Toend2_31" type="conventional"  from="start1" to="end2" depart="666.794153" />
    <trip id="start1Toend1_40" type="conventional"  from="start1" to="end1" depart="667.220096" />
    <trip id="start2Toend1_43" type="conventional"  from="start2" to="end1" depart="669.887992" />
    <trip id="start2Toend1_44" type="conventional"  from="start2" to="end1" depart="672.785267" />
    <trip id="start2Toend1_45" type="conventional"  from="start2" to="end1" depart="673.483465" />
    <trip id="start2Toend1_46" type="conventional"  from="start2" to="end1" depart="678.648663" />
    <trip id="start2Toend2_33" type="conventional"  from="start2" to="end2" depart="679.296771" />
    <trip id="start2Toend1_47" type="conventional"  from="start2" to="end1" depart="682.097823" />
    <trip id="start1Toend2_32" type="conventional"  from="start1" to="end2" depart="683.083905" />
    <trip id="start1Toend1_41" type="conventional"  from="start1" to="end1" depart="692.796917" />
    <trip id="start2Toend2_34" type="conventional"  from="start2" to="end2" depart="693.302031" />
    <trip id="start1Toend1_42" type="conventional"  from="start1" to="end1" depart="698.523478" />
    <trip id="start1Toend1_43" type="conventional"  from="start1" to="end1" depart="702.584227" />
    <trip id="start2Toend2_35" type="conventional"  from="start2" to="end2" depart="705.232125" />
    <trip id="start1Toend1_44" type="conventional"  from="start1" to="end1" depart="722.369851" />
    <trip id="start1Toend2_33" type="conventional"  from="start1" to="end2" depart="724.463572" />
    <trip id="start2Toend1_48" type="conventional"  from="start2" to="end1" depart="745.093162" />
    <trip id="start1Toend1_45" type="conventional"  from="start1" to="end1" depart="749.235901" />
    <trip id="start2Toend1_49" type="conventional"  from="start2" to="end1" depart="749.900986" />
    <trip id="start1Toend2_34" type="conventional"  from="start1" to="end2" depart="750.349310" />
    <trip id="start1Toend1_46" type="conventional"  from="start1" to="end1" depart="755.031414" />
    <trip id="start2Toend2_36" type="conventional"  from="start2" to="end2" depart="757.682773" />
    <trip id="start2Toend2_37" type="conventional"  from="start2" to="end2" depart="758.845087" />
    <trip id="start2Toend2_38" type="conventional"  from="start2" to="end2" depart="760.477720" />
    <trip id="start2Toend1_50" type="conventional"  from="start2" to="end1" depart="766.547595" />
    <trip id="start1Toend2_35" type="conventional"  from="start1" to="end2" depart="774.488093" />
    <trip id="start2Toend2_39" type="conventional"  from="start2" to="end2" depart="775.128380" />
    <trip id="start1Toend1_47" type="conventional"  from="start1" to="end1" depart="783.988145" />
    <trip id="start2Toend2_40" type="conventional"  from="start2" to="end2" depart="785.825253" />
    <trip id="start2Toend1_51" type="conventional"  from="start2" to="end1" depart="787.601137" />
    <trip id="start2Toend1_52" type="conventional"  from="start2" to="end1" depart="797.616411" />
    <trip id="start1Toend1_48" type="conventional"  from="start1" to="end1" depart="803.767523" />
    <trip id="start2Toend1_53" type="conventional"  from="start2" to="end1" depart="807.351643" />
    <trip id="start2Toend1_54" type="conventional"  from="start2" to="end1" depart="810.070847" />
    <trip id="start1Toend2_36" type="conventional"  from="start1" to="end2" depart="811.198951" />
    <trip id="start1Toend2_37" type="conventional"  from="start1" to="end2" depart="813.399129" />
    <trip id="start2Toend1_55" type="conventional"  from="start2" to="end1" depart="816.555032" />
    <trip id="start1Toend2_38" type="conventional"  from="start1" to="end2" depart="817.831762" />
    <trip id="start2Toend1_56" type="conventional"  from="start2" to="end1" depart="824.321829" />
    <trip id="start1Toend2_39" type="conventional"  from="start1" to="end2" depart="825.956408" />
    <trip id="start1Toend1_49" type="conventional"  from="start1" to="end1" depart="826.245328" />
    <trip id="start1Toend2_40" type="conventional"  from="start1" to="end2" depart="826.667979" />
    <trip id="start1Toend2_41" type="conventional"  from="start1" to="end2" depart="826.764251" />
    <trip id="start1Toend1_50" type="conventional"  from="start1" to="end1" depart="827.547590" />
    <trip id="start1Toend1_51" type="conventional"  from="start1" to="end1" depart="839.756516" />
    <trip id="start2Toend2_41" type="conventional"  from="start2" to="end2" depart="839.805628" />
    <trip id="start2Toend1_57" type="conventional"  from="start2" to="end1" depart="841.430585" />
    <trip id="start2Toend2_42" type="conventional"  from="start2" to="end2" depart="847.893354" />
    <trip id="start2Toend1_58" type="conventional"  from="start2" to="end1" depart="852.137334" />
    <trip id="start2Toend1_59" type="conventional"  from="start2" to="end1" depart="859.734617" />
    <trip id="start2Toend2_43" type="conventional"  from="start2" to="end2" depart="861.640223" />
    <trip id="start2Toend1_60" type="conventional"  from="start2" to="end1" depart="863.096317" />
    <trip id="start1Toend2_42" type="conventional"  from="start1" to="end2" depart="864.150365" />
    <trip id="start2Toend2_44" type="conventional"  from="start2" to="end2" depart="871.601449" />
    <trip id="start2Toend1_61" type="conventional"  from="start2" to="end1" depart="872.486870" />
    <trip id="start2Toend1_62" type="conventional"  from="start2" to="end1" depart="876.766323" />
    <trip id="start1Toend2_43" type="conventional"  from="start1" to="end2" depart="878.965582" />
    <trip id="start2Toend1_63" type="conventional"  from="start2" to="end1" depart="884.852094" />
    <trip id="start1Toend1_52" type="conventional"  from="start1" to="end1" depart="887.395313" />
    <trip id="start1Toend2_44" type="conventional"  from="start1" to="end2" depart="887.446174" />
    <trip id="start1Toend1_53" type="conventional"  from="start1" to="end1" depart="892.652018" />
    <trip id="start2Toend1_64" type="conventional"  from="start2" to="end1" depart="896.933692" />
    <trip id="start1Toend1_54" type="conventional"  from="start1" to="end1" depart="900.384361" />
    <trip id="start2Toend2_45" type="conventional"  from="start2" to="end2" depart="905.361337" />
    <trip id="start2Toend1_65" type="conventional"  from="start2" to="end1" depart="905.661138" />
    <trip id="start2Toend2_46" type="conventional"  from="start2" to="end2" depart="906.034916" />
    <trip id="start2Toend2_47" type="conventional"  from="start2" to="end2" depart="906.171742" />
    <trip id="start1Toend1_55" type="conventional"  from="start1" to="end1" depart="909.360167" />
    <trip id="start2Toend1_66" type="conventional"  from="start2" to="end1" depart="914.741477" />
    <trip id="start2Toend1_67" type="conventional"  from="start2" to="end1" depart="922.260746" />
    <trip id="start2Toend2_48" type="conventional"  from="start2" to="end2" depart="922.320840" />
    <trip id="start1Toend2_45" type="conventional"  from="start1" to="end2" depart="932.756940" />
    <trip id="start1Toend2_46" type="conventional"  from="start1" to="end2" depart="934.937587" />
    <trip id="start2Toend1_68" type="conventional"  from="start2" to="end1" depart="944.857465" />
    <trip id="start1Toend2_47" type="conventional"  from="start1" to="end2" depart="944.984541" />
    <trip id="start1Toend2_48" type="conventional"  from="start1" to="end2" depart="947.759873" />
    <trip id="start1Toend2_49" type="conventional"  from="start1" to="end2" depart="952.586242" />
    <trip id="start1Toend1_56" type="conventional"  from="start1" to="end1" depart="955.403863" />
    <trip id="start1Toend1_57" type="conventional"  from="start1" to="end1" depart="957.579345" />
    <trip id="start1Toend1_58" type="conventional"  from="start1" to="end1" depart="961.057075" />
    <trip id="start2Toend2_49" type="conventional"  from="start2" to="end2" depart="964.062324" />
    <trip id="start2Toend2_50" type="conventional"  from="start2" to="end2" depart="964.270081" />
    <trip id="start1Toend1_59" type="conventional"  from="start1" to="end1" depart="965.401723" />
    <trip id="start2Toend1_69" type="conventional"  from="start2" to="end1" depart="974.496793" />
    <trip id="start2Toend1_70" type="conventional"  from="start2" to="end1" depart="978.762300" />
    <trip id="start2Toend2_51" type="conventional"  from="start2" to="end2" depart="980.685071" />
    <trip id="start1Toend1_60" type="conventional"  from="start1" to="end1" depart="987.453428" />
    <trip id="start1Toend2_50" type="conventional"  from="start1" to="end2" depart="987.598942" />
    <trip id="start2Toend1_71" type="conventional"  from="start2" to="end1" depart="990.587788" />
    <trip id="start2Toend1_72" type="conventional"  from="start2" to="end1" depart="990.726204" />
    <trip id="start2Toend1_73" type="conventional"  from="start2" to="end1" depart="997.902148" />
    <trip id="start2Toend2_52" type="conventional"  from="start2" to="end2" depart="1001.017518" />
    <trip id="start2Toend1_74" type="conventional"  from="start2" to="end1" depart="1001.572955" />
    <trip id="start2Toend1_75" type="conventional"  from="start2" to="end1" depart="1002.511065" />
    <trip id="start2Toend2_53" type="conventional"  from="start2" to="end2" depart="1005.427272" />
    <trip id="start2Toend2_54" type="conventional"  from="start2" to="end2" depart="1006.280136" />
    <trip id="start1Toend1_61" type="conventional"  from="start1" to="end1" depart="1006.285220" />
    <trip id="start1Toend1_62" type="conventional"  from="start1" to="end1" depart="1017.640500" />
    <trip id="start1Toend2_51" type="conventional"  from="start1" to="end2" depart="1020.701096" />
    <trip id="start2Toend1_76" type="conventional"  from="start2" to="end1" depart="1022.095878" />
    <trip id="start1Toend2_52" type="conventional"  from="start1" to="end2" depart="1031.980912" />
    <trip id="start2Toend2_55" type="conventional"  from="start2" to="end2" depart="1035.867242" />
    <trip id="start1Toend1_63" type="conventional"  from="start1" to="end1" depart="1048.498543" />
    <trip id="start1Toend1_64" type="conventional"  from="start1" to="end1" depart="1049.224618" />
    <trip id="start1Toend2_53" type="conventional"  from="start1" to="end2" depart="1056.703056" />
    <trip id="start1Toend1_65" type="conventional"  from="start1" to="end1" depart="1058.845546" />
    <trip id="start2Toend2_56" type="conventional"  from="start2" to="end2" depart="1061.874901" />
    <trip id="start2Toend1_77" type="conventional"  from="start2" to="end1" depart="1062.144633" />
    <trip id="start1Toend1_66" type="conventional"  from="start1" to="end1" depart="1065.286505" />
    <trip id="start1Toend1_67" type="conventional"  from="start1" to="end1" depart="1067.150947" />
    <trip id="start2Toend1_78" type="conventional"  from="start2" to="end1" depart="1068.659349" />
    <trip id="start2Toend1_79" type="conventional"  from="start2" to="end1" depart="1070.712901" />
    <trip id="start2Toend1_80" type="conventional"  from="start2" to="end1" depart="1086.174069" />
    <trip id="start1Toend1_68" type="conventional"  from="start1" to="end1" depart="1086.388598" />
    <trip id="start1Toend2_54" type="conventional"  from="start1" to="end2" depart="1090.875027" />
    <trip id="start1Toend1_69" type="conventional"  from="start1" to="end1" depart="1091.064386" />
    <trip id="start1Toend2_55" type="conventional"  from="start1" to="end2" depart="1094.846683" />
    <trip id="start1Toend2_56" type="conventional"  from="start1" to="end2" depart="1099.873785" />
    <trip id="start1Toend2_57" type="conventional"  from="start1" to="end2" depart="1101.929161" />
    <trip id="start1Toend1_70" type="conventional"  from="start1" to="end1" depart="1103.178100" />
    <trip id="start2Toend1_81" type="conventional"  from="start2" to="end1" depart="1105.496527" />
    <trip id="start1Toend1_71" type="conventional"  from="start1" to="end1" depart="1107.053872" />
    <trip id="start2Toend2_57" type="conventional"  from="start2" to="end2" depart="1109.910805" />
    <trip id="start1Toend2_58" type="conventional"  from="start1" to="end2" depart="1109.922902" />
    <trip id="start1Toend2_59" type="conventional"  from="start1" to="end2" depart="1110.752713" />
    <trip id="start1Toend1_72" type="conventional"  from="start1" to="end1" depart="1118.577157" />
    <trip id="start2Toend1_82" type="conventional"  from="start2" to="end1" depart="1119.634358" />
    <trip id="start1Toend1_73" type="conventional"  from="start1" to="end1" depart="1121.235558" />
    <trip id="start1Toend1_74" type="conventional"  from="start1" to="end1" depart="1132.582520" />
    <trip id="start2Toend1_83" type="conventional"  from="start2" to="end1" depart="1136.102487" />
    <trip id="start2Toend1_84" type="conventional"  from="start2" to="end1" depart="1139.728468" />
    <trip id="start2Toend2_58" type="conventional"  from="start2" to="end2" depart="1145.378295" />
    <trip id="start1Toend1_75" type="conventional"  from="start1" to="end1" depart="1148.569604" />
    <trip id="start1Toend1_76" type="conventional"  from="start1" to="end1" depart="1153.910782" />