<?xml version="1.0" encoding="UTF-8"?>

<routes>

	<route id="route0" edges="start1 end1" />
    <route id="route1" edges="start1 end2" />
    <route id="route2" edges="start2 end1" />
    <route id="route3" edges="start2 end2" />


    <vType id="conventional" vClass="passenger" tau="5.5" minGap="7.5" carFollowModel="IDM" maxSpeed="40.00"/>
    <vType id="conventional_human" vClass="passenger" tau="5.5" minGap="7.5" carFollowModel="IDM" maxSpeed="40.00" color="52,128,235"/>
    <!--vType id="conventional_human" vClass="passenger" tau="3.5" minGap="5.5" carFollowModel="IDM" maxSpeed="28.00" color="52,128,235"/-->
    <vType id="non_merging" vClass="passenger" tau="5.5" minGap="7.5" carFollowModel="IDM" maxSpeed="40.00"/>
    <vType id="merging" vClass="passenger" carFollowModel="IDM" emergencyDecel="4.5" length="5" tau="0.1" maxSpeed="40.00" color="1,1,0" accel="10.3" decel="1.7" sigma="0.0" minGap="2.0"/>
    <!--vType id="connected" vClass="passenger" tau="2.5" minGap="5.5" carFollowModel="IDM" maxSpeed="28.00" lcCooperative="0.0" color="1,1,0" lcStrategic="1.0" accel="3.0" decel="1.5" emergencyDecel="4.5" lcSpeedGain="0.3" sigma="0.0" lcKeepRight="0.3"-->
    <vType id="connected" vClass="passenger" tau="5.5" minGap="7.5" carFollowModel="IDM" maxSpeed="1.00" emergencyDecel="4.5"/>
    <vType id="routeByDistance" maxSpeed="1"/>
    <vType id="connected_pCatchupFollower" vClass="passenger" carFollowModel="IDM" emergencyDecel="4.5" length="5" tau="0.1" maxSpeed="40.00" color="1,1,0" accel="10.3" decel="1.7" sigma="0.0" minGap="2.0"/>
    <vType id="connected_pCatchup" vClass="passenger" tau="0.1" carFollowModel="IDM" emergencyDecel="4.5" maxSpeed="40.00" color="0,0.8,0.3" accel="10.3" decel="1.7" sigma="0.0" minGap="2.0"/>
    <vType id="connected_pFollower" vClass="passenger" tau="0.1" carFollowModel="IDM" maxSpeed="40.00" color="1,1,0" accel="10.3" decel="1.7" sigma="0.0"  minGap="2.0" emergencyDecel="4.5"/>
    <vType id="connected_pLeader" vClass="passenger" length="5" carFollowModel="IDM" maxSpeed="40.00" lcCooperative="0.0" color="1,1,0" lcStrategic="1.0" accel="13.0" decel="1.5" emergencyDecel="4.5" lcSpeedGain="0.3" sigma="0.0" lcKeepRight="0.3"/>

    
	
    <trip id="start1Toend1_0" type="conventional"  from="start1" to="end1" depart="0.000000" />
    <trip id="start2Toend1_0" type="conventional"  from="start2" to="end1" depart="0.000000" />
    <trip id="start2Toend1_1" type="conventional"  from="start2" to="end1" depart="0.006295" />
    <trip id="start1Toend1_1" type="conventional"  from="start1" to="end1" depart="2.971934" />
    <trip id="start2Toend1_2" type="conventional"  from="start2" to="end1" depart="9.148385" />
    <trip id="start1Toend2_0" type="conventional"  from="start1" to="end2" depart="10.000000" />
    <trip id="start2Toend2_0" type="conventional"  from="start2" to="end2" depart="10.000000" />
    <trip id="start2Toend1_3" type="conventional"  from="start2" to="end1" depart="17.872863" />
    <trip id="start2Toend1_4" type="conventional"  from="start2" to="end1" depart="19.760596" />
    <trip id="start2Toend2_1" type="conventional"  from="start2" to="end2" depart="21.793777" />
    <trip id="start1Toend1_2" type="conventional"  from="start1" to="end1" depart="29.262273" />
    <trip id="start2Toend1_5" type="conventional"  from="start2" to="end1" depart="29.394203" />
    <trip id="start1Toend1_3" type="conventional"  from="start1" to="end1" depart="32.133544" />
    <trip id="start1Toend2_1" type="conventional"  from="start1" to="end2" depart="35.562719" />
    <trip id="start2Toend1_6" type="conventional"  from="start2" to="end1" depart="42.040112" />
    <trip id="start1Toend1_4" type="conventional"  from="start1" to="end1" depart="43.412343" />
    <trip id="start2Toend2_2" type="conventional"  from="start2" to="end2" depart="46.586813" />
    <trip id="start2Toend1_7" type="conventional"  from="start2" to="end1" depart="48.718884" />
    <trip id="start2Toend2_3" type="conventional"  from="start2" to="end2" depart="49.509662" />
    <trip id="start2Toend1_8" type="conventional"  from="start2" to="end1" depart="54.169479" />
    <trip id="start1Toend1_5" type="conventional"  from="start1" to="end1" depart="55.411105" />
    <trip id="start1Toend1_6" type="conventional"  from="start1" to="end1" depart="57.748597" />
    <trip id="start2Toend1_9" type="conventional"  from="start2" to="end1" depart="62.467976" />
    <trip id="start1Toend2_2" type="conventional"  from="start1" to="end2" depart="66.400738" />
    <trip id="start2Toend2_4" type="conventional"  from="start2" to="end2" depart="67.739059" />
    <trip id="start1Toend2_3" type="conventional"  from="start1" to="end2" depart="71.781686" />
    <trip id="start1Toend1_7" type="conventional"  from="start1" to="end1" depart="77.586968" />
    <trip id="start1Toend1_8" type="conventional"  from="start1" to="end1" depart="88.555619" />
    <trip id="start2Toend2_5" type="conventional"  from="start2" to="end2" depart="90.151780" />
    <trip id="start2Toend1_10" type="conventional"  from="start2" to="end1" depart="93.899152" />
    <trip id="start2Toend2_6" type="conventional"  from="start2" to="end2" depart="95.789812" />
    <trip id="start2Toend1_11" type="conventional"  from="start2" to="end1" depart="96.675228" />
    <trip id="start1Toend1_9" type="conventional"  from="start1" to="end1" depart="98.217915" />
    <trip id="start2Toend2_7" type="conventional"  from="start2" to="end2" depart="101.248605" />
    <trip id="start2Toend1_12" type="conventional"  from="start2" to="end1" depart="101.502637" />
    <trip id="start2Toend1_13" type="conventional"  from="start2" to="end1" depart="108.749638" />
    <trip id="start2Toend1_14" type="conventional"  from="start2" to="end1" depart="109.371852" />
    <trip id="start1Toend1_10" type="conventional"  from="start1" to="end1" depart="109.412097" />
    <trip id="start1Toend2_4" type="conventional"  from="start1" to="end2" depart="115.056840" />
    <trip id="start2Toend2_8" type="conventional"  from="start2" to="end2" depart="119.726564" />
    <trip id="start2Toend1_15" type="conventional"  from="start2" to="end1" depart="120.155849" />
    <trip id="start2Toend1_16" type="conventional"  from="start2" to="end1" depart="121.570451" />
    <trip id="start2Toend1_17" type="conventional"  from="start2" to="end1" depart="124.509870" />
    <trip id="start2Toend2_9" type="conventional"  from="start2" to="end2" depart="138.992266" />
    <trip id="start2Toend1_18" type="conventional"  from="start2" to="end1" depart="141.971311" />
    <trip id="start1Toend1_11" type="conventional"  from="start1" to="end1" depart="152.513934" />
    <trip id="start1Toend1_12" type="conventional"  from="start1" to="end1" depart="154.187062" />
    <trip id="start2Toend1_19" type="conventional"  from="start2" to="end1" depart="156.953000" />
    <trip id="start2Toend1_20" type="conventional"  from="start2" to="end1" depart="159.064121" />
    <trip id="start1Toend2_5" type="conventional"  from="start1" to="end2" depart="171.507890" />
    <trip id="start2Toend1_21" type="conventional"  from="start2" to="end1" depart="171.923570" />
    <trip id="start1Toend1_13" type="conventional"  from="start1" to="end1" depart="179.960727" />
    <trip id="start1Toend2_6" type="conventional"  from="start1" to="end2" depart="180.752016" />
    <trip id="start2Toend1_22" type="conventional"  from="start2" to="end1" depart="186.776520" />
    <trip id="start1Toend2_7" type="conventional"  from="start1" to="end2" depart="187.042980" />
    <trip id="start2Toend1_23" type="conventional"  from="start2" to="end1" depart="187.252820" />
    <trip id="start1Toend1_14" type="conventional"  from="start1" to="end1" depart="190.806321" />
    <trip id="start1Toend2_8" type="conventional"  from="start1" to="end2" depart="199.136963" />
    <trip id="start2Toend1_24" type="conventional"  from="start2" to="end1" depart="208.779813" />
    <trip id="start2Toend2_10" type="conventional"  from="start2" to="end2" depart="214.545541" />
    <trip id="start2Toend2_11" type="conventional"  from="start2" to="end2" depart="215.018078" />
    <trip id="start2Toend1_25" type="conventional"  from="start2" to="end1" depart="224.501792" />
    <trip id="start1Toend1_15" type="conventional"  from="start1" to="end1" depart="226.287511" />
    <trip id="start2Toend1_26" type="conventional"  from="start2" to="end1" depart="231.115762" />
    <trip id="start1Toend2_9" type="conventional"  from="start1" to="end2" depart="233.082694" />
    <trip id="start1Toend1_16" type="conventional"  from="start1" to="end1" depart="234.561433" />
    <trip id="start1Toend2_10" type="conventional"  from="start1" to="end2" depart="236.908123" />
    <trip id="start1Toend1_17" type="conventional"  from="start1" to="end1" depart="237.850523" />
    <trip id="start1Toend1_18" type="conventional"  from="start1" to="end1" depart="240.084662" />
    <trip id="start1Toend2_11" type="conventional"  from="start1" to="end2" depart="245.306232" />
    <trip id="start2Toend2_12" type="conventional"  from="start2" to="end2" depart="247.191159" />
    <trip id="start1Toend2_12" type="conventional"  from="start1" to="end2" depart="262.135598" />
    <trip id="start2Toend1_27" type="conventional"  from="start2" to="end1" depart="263.602897" />
    <trip id="start1Toend2_13" type="conventional"  from="start1" to="end2" depart="263.952649" />
    <trip id="start2Toend2_13" type="conventional"  from="start2" to="end2" depart="266.501992" />
    <trip id="start1Toend2_14" type="conventional"  from="start1" to="end2" depart="279.258992" />
    <trip id="start1Toend1_19" type="conventional"  from="start1" to="end1" depart="281.013127" />
    <trip id="start1Toend2_15" type="conventional"  from="start1" to="end2" depart="283.970238" />
    <trip id="start2Toend1_28" type="conventional"  from="start2" to="end1" depart="287.152492" />
    <trip id="start1Toend1_20" type="conventional"  from="start1" to="end1" depart="288.493510" />
    <trip id="start1Toend1_21" type="conventional"  from="start1" to="end1" depart="294.554450" />
    <trip id="start1Toend2_16" type="conventional"  from="start1" to="end2" depart="296.885202" />
    <trip id="start1Toend1_22" type="conventional"  from="start1" to="end1" depart="300.717086" />
    <trip id="start1Toend1_23" type="conventional"  from="start1" to="end1" depart="304.667419" />
    <trip id="start2Toend2_14" type="conventional"  from="start2" to="end2" depart="304.931264" />
    <trip id="start1Toend2_17" type="conventional"  from="start1" to="end2" depart="304.967821" />
    <trip id="start2Toend1_29" type="conventional"  from="start2" to="end1" depart="306.667666" />
    <trip id="start2Toend1_30" type="conventional"  from="start2" to="end1" depart="311.155129" />
    <trip id="start2Toend1_31" type="conventional"  from="start2" to="end1" depart="316.088217" />
    <trip id="start2Toend1_32" type="conventional"  from="start2" to="end1" depart="318.995488" />
    <trip id="start1Toend2_18" type="conventional"  from="start1" to="end2" depart="323.551230" />
    <trip id="start1Toend1_24" type="conventional"  from="start1" to="end1" depart="326.759756" />
    <trip id="start2Toend1_33" type="conventional"  from="start2" to="end1" depart="326.994025" />
    <trip id="start2Toend1_34" type="conventional"  from="start2" to="end1" depart="331.995417" />
    <trip id="start2Toend1_35" type="conventional"  from="start2" to="end1" depart="332.197004" />
    <trip id="start2Toend1_36" type="conventional"  from="start2" to="end1" depart="345.394998" />
    <trip id="start1Toend2_19" type="conventional"  from="start1" to="end2" depart="345.683718" />
    <trip id="start1Toend2_20" type="conventional"  from="start1" to="end2" depart="348.136632" />
    <trip id="start2Toend2_15" type="conventional"  from="start2" to="end2" depart="349.133892" />
    <trip id="start2Toend1_37" type="conventional"  from="start2" to="end1" depart="350.262057" />
    <trip id="start2Toend2_16" type="conventional"  from="start2" to="end2" depart="361.308982" />
    <trip id="start2Toend1_38" type="conventional"  from="start2" to="end1" depart="362.076074" />
    <trip id="start2Toend1_39" type="conventional"  from="start2" to="end1" depart="370.945808" />
    <trip id="start1Toend1_25" type="conventional"  from="start1" to="end1" depart="376.988586" />
    <trip id="start2Toend2_17" type="conventional"  from="start2" to="end2" depart="379.412238" />
    <trip id="start2Toend2_18" type="conventional"  from="start2" to="end2" depart="380.687422" />
    <trip id="start1Toend2_21" type="conventional"  from="start1" to="end2" depart="381.620826" />
    <trip id="start1Toend2_22" type="conventional"  from="start1" to="end2" depart="383.238691" />
    <trip id="start1Toend1_26" type="conventional"  from="start1" to="end1" depart="384.981552" />
    <trip id="start1Toend2_23" type="conventional"  from="start1" to="end2" depart="386.331712" />
    <trip id="start1Toend1_27" type="conventional"  from="start1" to="end1" depart="386.691218" />
    <trip id="start1Toend1_28" type="conventional"  from="start1" to="end1" depart="386.917213" />
    <trip id="start1Toend2_24" type="conventional"  from="start1" to="end2" depart="387.982071" />
    <trip id="start2Toend1_40" type="conventional"  from="start2" to="end1" depart="390.863193" />
    <trip id="start1Toend1_29" type="conventional"  from="start1" to="end1" depart="392.241231" />
    <trip id="start2Toend2_19" type="conventional"  from="start2" to="end2" depart="394.901218" />
    <trip id="start2Toend1_41" type="conventional"  from="start2" to="end1" depart="400.906004" />
    <trip id="start1Toend2_25" type="conventional"  from="start1" to="end2" depart="409.426200" />
    <trip id="start1Toend2_26" type="conventional"  from="start1" to="end2" depart="410.663982" />
    <trip id="start1Toend1_30" type="conventional"  from="start1" to="end1" depart="422.528079" />
    <trip id="start2Toend2_20" type="conventional"  from="start2" to="end2" depart="430.627293" />
    <trip id="start2Toend2_21" type="conventional"  from="start2" to="end2" depart="430.967943" />
    <trip id="start1Toend2_27" type="conventional"  from="start1" to="end2" depart="437.148843" />
    <trip id="start1Toend2_28" type="conventional"  from="start1" to="end2" depart="439.911442" />
    <trip id="start2Toend2_22" type="conventional"  from="start2" to="end2" depart="442.078937" />
    <trip id="start1Toend2_29" type="conventional"  from="start1" to="end2" depart="445.301018" />
    <trip id="start1Toend1_31" type="conventional"  from="start1" to="end1" depart="447.235936" />
    <trip id="start2Toend1_42" type="conventional"  from="start2" to="end1" depart="447.412175" />
    <trip id="start1Toend2_30" type="conventional"  from="start1" to="end2" depart="451.453526" />
    <trip id="start1Toend2_31" type="conventional"  from="start1" to="end2" depart="458.534534" />
    <trip id="start2Toend2_23" type="conventional"  from="start2" to="end2" depart="468.865706" />
    <trip id="start2Toend1_43" type="conventional"  from="start2" to="end1" depart="472.354922" />
    <trip id="start1Toend2_32" type="conventional"  from="start1" to="end2" depart="474.696735" />
    <trip id="start1Toend1_32" type="conventional"  from="start1" to="end1" depart="481.125933" />
    <trip id="start1Toend2_33" type="conventional"  from="start1" to="end2" depart="481.222835" />
    <trip id="start2Toend2_24" type="conventional"  from="start2" to="end2" depart="485.450087" />
    <trip id="start1Toend1_33" type="conventional"  from="start1" to="end1" depart="486.295966" />
    <trip id="start1Toend2_34" type="conventional"  from="start1" to="end2" depart="488.698981" />
    <trip id="start1Toend2_35" type="conventional"  from="start1" to="end2" depart="493.825573" />
    <trip id="start2Toend1_44" type="conventional"  from="start2" to="end1" depart="500.632570" />
    <trip id="start1Toend1_34" type="conventional"  from="start1" to="end1" depart="504.467384" />
    <trip id="start2Toend1_45" type="conventional"  from="start2" to="end1" depart="506.018475" />
    <trip id="start1Toend2_36" type="conventional"  from="start1" to="end2" depart="506.401367" />
    <trip id="start2Toend2_25" type="conventional"  from="start2" to="end2" depart="508.839649" />
    <trip id="start1Toend1_35" type="conventional"  from="start1" to="end1" depart="516.294571" />
    <trip id="start1Toend1_36" type="conventional"  from="start1" to="end1" depart="516.457270" />
    <trip id="start1Toend1_37" type="conventional"  from="start1" to="end1" depart="518.821872" />
    <trip id="start1Toend1_38" type="conventional"  from="start1" to="end1" depart="519.909109" />
    <trip id="start2Toend2_26" type="conventional"  from="start2" to="end2" depart="520.780709" />
    <trip id="start2Toend1_46" type="conventional"  from="start2" to="end1" depart="527.500645" />
    <trip id="start2Toend2_27" type="conventional"  from="start2" to="end2" depart="533.634091" />
    <trip id="start2Toend2_28" type="conventional"  from="start2" to="end2" depart="535.211054" />
    <trip id="start2Toend1_47" type="conventional"  from="start2" to="end1" depart="538.100166" />
    <trip id="start2Toend1_48" type="conventional"  from="start2" to="end1" depart="540.890630" />
    <trip id="start1Toend2_37" type="conventional"  from="start1" to="end2" depart="547.707218" />
    <trip id="start2Toend2_29" type="conventional"  from="start2" to="end2" depart="555.398803" />
    <trip id="start1Toend1_39" type="conventional"  from="start1" to="end1" depart="555.553772" />
    <trip id="start2Toend2_30" type="conventional"  from="start2" to="end2" depart="562.705144" />
    <trip id="start2Toend1_49" type="conventional"  from="start2" to="end1" depart="565.189232" />
    <trip id="start1Toend2_38" type="conventional"  from="start1" to="end2" depart="570.719962" />
    <trip id="start2Toend2_31" type="conventional"  from="start2" to="end2" depart="571.989819" />
    <trip id="start1Toend2_39" type="conventional"  from="start1" to="end2" depart="575.055098" />
    <trip id="start2Toend2_32" type="conventional"  from="start2" to="end2" depart="576.526566" />
    <trip id="start2Toend1_50" type="conventional"  from="start2" to="end1" depart="579.482914" />
    <trip id="start1Toend2_40" type="conventional"  from="start1" to="end2" depart="581.923174" />
    <trip id="start1Toend1_40" type="conventional"  from="start1" to="end1" depart="584.275658" />
    <trip id="start2Toend1_51" type="conventional"  from="start2" to="end1" depart="585.731245" />
    <trip id="start2Toend2_33" type="conventional"  from="start2" to="end2" depart="593.311133" />
    <trip id="start1Toend1_41" type="conventional"  from="start1" to="end1" depart="597.274690" />
    <trip id="start2Toend1_52" type="conventional"  from="start2" to="end1" depart="605.950076" />
    <trip id="start1Toend2_41" type="conventional"  from="start1" to="end2" depart="616.496093" />
    <trip id="start1Toend2_42" type="conventional"  from="start1" to="end2" depart="620.640025" />
    <trip id="start2Toend1_53" type="conventional"  from="start2" to="end1" depart="626.408190" />
    <trip id="start2Toend2_34" type="conventional"  from="start2" to="end2" depart="628.721654" />
    <trip id="start2Toend1_54" type="conventional"  from="start2" to="end1" depart="636.649351" />
    <trip id="start2Toend2_35" type="conventional"  from="start2" to="end2" depart="637.419671" />
    <trip id="start1Toend2_43" type="conventional"  from="start1" to="end2" depart="640.943846" />
    <trip id="start2Toend1_55" type="conventional"  from="start2" to="end1" depart="641.530761" />
    <trip id="start1Toend2_44" type="conventional"  from="start1" to="end2" depart="644.006084" />
    <trip id="start1Toend1_42" type="conventional"  from="start1" to="end1" depart="652.859249" />
    <trip id="start1Toend2_45" type="conventional"  from="start1" to="end2" depart="661.191659" />
    <trip id="start1Toend1_43" type="conventional"  from="start1" to="end1" depart="661.518086" />
    <trip id="start1Toend1_44" type="conventional"  from="start1" to="end1" depart="667.977326" />
    <trip id="start2Toend1_56" type="conventional"  from="start2" to="end1" depart="669.776551" />
    <trip id="start1Toend2_46" type="conventional"  from="start1" to="end2" depart="673.766496" />
    <trip id="start1Toend1_45" type="conventional"  from="start1" to="end1" depart="675.212514" />
    <trip id="start1Toend2_47" type="conventional"  from="start1" to="end2" depart="676.791084" />
    <trip id="start2Toend2_36" type="conventional"  from="start2" to="end2" depart="679.492447" />
    <trip id="start2Toend2_37" type="conventional"  from="start2" to="end2" depart="687.007150" />
    <trip id="start2Toend2_38" type="conventional"  from="start2" to="end2" depart="687.237320" />
    <trip id="start1Toend2_48" type="conventional"  from="start1" to="end2" depart="691.117833" />
    <trip id="start2Toend2_39" type="conventional"  from="start2" to="end2" depart="691.974583" />
    <trip id="start1Toend2_49" type="conventional"  from="start1" to="end2" depart="704.440436" />
    <trip id="start2Toend1_57" type="conventional"  from="start2" to="end1" depart="707.276264" />
    <trip id="start1Toend1_46" type="conventional"  from="start1" to="end1" depart="712.885645" />
    <trip id="start1Toend1_47" type="conventional"  from="start1" to="end1" depart="716.756319" />
    <trip id="start1Toend1_48" type="conventional"  from="start1" to="end1" depart="728.372767" />
    <trip id="start2Toend2_40" type="conventional"  from="start2" to="end2" depart="735.209136" />
    <trip id="start1Toend1_49" type="conventional"  from="start1" to="end1" depart="735.465777" />
    <trip id="start1Toend2_50" type="conventional"  from="start1" to="end2" depart="737.949371" />
    <trip id="start2Toend1_58" type="conventional"  from="start2" to="end1" depart="738.605514" />
    <trip id="start2Toend2_41" type="conventional"  from="start2" to="end2" depart="738.998185" />
    <trip id="start1Toend1_50" type="conventional"  from="start1" to="end1" depart="743.756200" />
    <trip id="start2Toend1_59" type="conventional"  from="start2" to="end1" depart="748.141974" />
    <trip id="start1Toend1_51" type="conventional"  from="start1" to="end1" depart="758.797457" />
    <trip id="start2Toend1_60" type="conventional"  from="start2" to="end1" depart="763.772514" />
    <trip id="start1Toend2_51" type="conventional"  from="start1" to="end2" depart="764.160461" />
    <trip id="start1Toend1_52" type="conventional"  from="start1" to="end1" depart="765.684110" />
    <trip id="start1Toend1_53" type="conventional"  from="start1" to="end1" depart="765.745374" />
    <trip id="start2Toend1_61" type="conventional"  from="start2" to="end1" depart="771.025857" />
    <trip id="start2Toend1_62" type="conventional"  from="start2" to="end1" depart="773.845043" />
    <trip id="start2Toend1_63" type="conventional"  from="start2" to="end1" depart="779.160166" />
    <trip id="start2Toend2_42" type="conventional"  from="start2" to="end2" depart="781.633267" />
    <trip id="start1Toend2_52" type="conventional"  from="start1" to="end2" depart="787.806232" />
    <trip id="start2Toend1_64" type="conventional"  from="start2" to="end1" depart="794.012856" />
    <trip id="start1Toend2_53" type="conventional"  from="start1" to="end2" depart="800.922644" />
    <trip id="start2Toend2_43" type="conventional"  from="start2" to="end2" depart="804.777215" />
    <trip id="start1Toend2_54" type="conventional"  from="start1" to="end2" depart="806.899591" />
    <trip id="start2Toend1_65" type="conventional"  from="start2" to="end1" depart="810.589631" />
    <trip id="start2Toend1_66" type="conventional"  from="start2" to="end1" depart="811.498646" />
    <trip id="start1Toend2_55" type="conventional"  from="start1" to="end2" depart="822.584166" />
    <trip id="start1Toend2_56" type="conventional"  from="start1" to="end2" depart="830.132021" />
    <trip id="start2Toend1_67" type="conventional"  from="start2" to="end1" depart="832.922081" />
    <trip id="start2Toend2_44" type="conventional"  from="start2" to="end2" depart="841.315451" />
    <trip id="start1Toend2_57" type="conventional"  from="start1" to="end2" depart="844.582737" />
    <trip id="start2Toend1_68" type="conventional"  from="start2" to="end1" depart="844.609752" />
    <trip id="start2Toend2_45" type="conventional"  from="start2" to="end2" depart="845.141033" />
    <trip id="start1Toend2_58" type="conventional"  from="start1" to="end2" depart="846.843550" />
    <trip id="start1Toend1_54" type="conventional"  from="start1" to="end1" depart="852.628854" />
    <trip id="start1Toend2_59" type="conventional"  from="start1" to="end2" depart="859.214595" />
    <trip id="start2Toend1_69" type="conventional"  from="start2" to="end1" depart="872.396990" />
    <trip id="start1Toend2_60" type="conventional"  from="start1" to="end2" depart="876.406489" />
    <trip id="start2Toend1_70" type="conventional"  from="start2" to="end1" depart="877.408811" />
    <trip id="start1Toend2_61" type="conventional"  from="start1" to="end2" depart="884.447766" />
    <trip id="start2Toend1_71" type="conventional"  from="start2" to="end1" depart="884.611289" />
    <trip id="start2Toend2_46" type="conventional"  from="start2" to="end2" depart="886.086046" />
    <trip id="start2Toend2_47" type="conventional"  from="start2" to="end2" depart="887.901161" />
    <trip id="start1Toend1_55" type="conventional"  from="start1" to="end1" depart="894.031575" />
    <trip id="start1Toend2_62" type="conventional"  from="start1" to="end2" depart="901.978221" />
    <trip id="start1Toend1_56" type="conventional"  from="start1" to="end1" depart="903.201752" />
    <trip id="start1Toend2_63" type="conventional"  from="start1" to="end2" depart="906.235635" />
    <trip id="start1Toend2_64" type="conventional"  from="start1" to="end2" depart="909.290135" />
    <trip id="start1Toend1_57" type="conventional"  from="start1" to="end1" depart="912.741874" />
    <trip id="start2Toend2_48" type="conventional"  from="start2" to="end2" depart="912.746173" />
    <trip id="start1Toend1_58" type="conventional"  from="start1" to="end1" depart="920.395043" />
    <trip id="start2Toend2_49" type="conventional"  from="start2" to="end2" depart="931.933570" />
    <trip id="start2Toend2_50" type="conventional"  from="start2" to="end2" depart="943.626875" />
    <trip id="start1Toend2_65" type="conventional"  from="start1" to="end2" depart="961.615705" />
    <trip id="start2Toend2_51" type="conventional"  from="start2" to="end2" depart="962.923140" />
    <trip id="start2Toend2_52" type="conventional"  from="start2" to="end2" depart="967.032296" />
    <trip id="start2Toend2_53" type="conventional"  from="start2" to="end2" depart="969.136095" />
    <trip id="start1Toend2_66" type="conventional"  from="start1" to="end2" depart="971.929958" />
    <trip id="start2Toend2_54" type="conventional"  from="start2" to="end2" depart="974.608818" />
    <trip id="start1Toend2_67" type="conventional"  from="start1" to="end2" depart="976.356923" />
    <trip id="start2Toend2_55" type="conventional"  from="start2" to="end2" depart="976.361569" />
    <trip id="start2Toend2_56" type="conventional"  from="start2" to="end2" depart="983.437436" />
    <trip id="start1Toend2_68" type="conventional"  from="start1" to="end2" depart="984.227940" />
    <trip id="start1Toend2_69" type="conventional"  from="start1" to="end2" depart="986.744652" />
    <trip id="start1Toend1_59" type="conventional"  from="start1" to="end1" depart="987.384602" />
    <trip id="start1Toend2_70" type="conventional"  from="start1" to="end2" depart="988.049702" />
    <trip id="start1Toend1_60" type="conventional"  from="start1" to="end1" depart="988.267543" />
    <trip id="start2Toend2_57" type="conventional"  from="start2" to="end2" depart="994.278647" />
    <trip id="start2Toend1_72" type="conventional"  from="start2" to="end1" depart="1003.364667" />
    <trip id="start1Toend2_71" type="conventional"  from="start1" to="end2" depart="1007.814466" />
    <trip id="start1Toend1_61" type="conventional"  from="start1" to="end1" depart="1013.154166" />
    <trip id="start2Toend1_73" type="conventional"  from="start2" to="end1" depart="1021.850892" />
    <trip id="start1Toend1_62" type="conventional"  from="start1" to="end1" depart="1023.192158" />
    <trip id="start1Toend1_63" type="conventional"  from="start1" to="end1" depart="1030.239843" />
    <trip id="start1Toend2_72" type="conventional"  from="start1" to="end2" depart="1033.901021" />
    <trip id="start2Toend2_58" type="conventional"  from="start2" to="end2" depart="1036.045940" />
    <trip id="start2Toend2_59" type="conventional"  from="start2" to="end2" depart="1038.205040" />
    <trip id="start1Toend1_64" type="conventional"  from="start1" to="end1" depart="1039.204143" />
    <trip id="start2Toend1_74" type="conventional"  from="start2" to="end1" depart="1039.345685" />
    <trip id="start2Toend1_75" type="conventional"  from="start2" to="end1" depart="1039.840491" />
    <trip id="start1Toend1_65" type="conventional"  from="start1" to="end1" depart="1060.668007" />
    <trip id="start1Toend2_73" type="conventional"  from="start1" to="end2" depart="1062.317425" />
    <trip id="start1Toend2_74" type="conventional"  from="start1" to="end2" depart="1063.301811" />
    <trip id="start1Toend1_66" type="conventional"  from="start1" to="end1" depart="1065.584333" />
    <trip id="start2Toend1_76" type="conventional"  from="start2" to="end1" depart="1066.214242" />
    <trip id="start1Toend2_75" type="conventional"  from="start1" to="end2" depart="1068.184749" />
    <trip id="start1Toend1_67" type="conventional"  from="start1" to="end1" depart="1074.900548" />