<?xml version="1.0" encoding="UTF-8"?>

<routes>

	<route id="route0" edges="start1 end1" />
    <route id="route1" edges="start1 end2" />
    <route id="route2" edges="start2 end1" />
    <route id="route3" edges="start2 end2" />


    <vType id="conventional" vClass="passenger" tau="5.5" minGap="7.5" carFollowModel="IDM" maxSpeed="40.00"/>
    <vType id="conventional_human" vClass="passenger" tau="5.5" minGap="7.5" carFollowModel="IDM" maxSpeed="40.00" color="52,128,235"/>
    <!--vType id="conventional_human" vClass="passenger" tau="3.5" minGap="5.5" carFollowModel="IDM" maxSpeed="28.00" color="52,128,235"/-->
    <vType id="non_merging" vClass="passenger" tau="5.5" minGap="7.5" carFollowModel="IDM" maxSpeed="40.00"/>
    <vType id="merging" vClass="passenger" carFollowModel="IDM" emergencyDecel="4.5" length="5" tau="0.1" maxSpeed="40.00" color="1,1,0" accel="10.3" decel="1.7" sigma="0.0" minGap="2.0"/>
    <!--vType id="connected" vClass="passenger" tau="2.5" minGap="5.5" carFollowModel="IDM" maxSpeed="28.00" lcCooperative="0.0" color="1,1,0" lcStrategic="1.0" accel="3.0" decel="1.5" emergencyDecel="4.5" lcSpeedGain="0.3" sigma="0.0" lcKeepRight="0.3"-->
    <vType id="connected" vClass="passenger" tau="5.5" minGap="7.5" carFollowModel="IDM" maxSpeed="1.00" emergencyDecel="4.5"/>
    <vType id="routeByDistance" maxSpeed="1"/>
    <vType id="connected_pCatchupFollower" vClass="passenger" carFollowModel="IDM" emergencyDecel="4.5" length="5" tau="0.1" maxSpeed="40.00" color="1,1,0" accel="10.3" decel="1.7" sigma="0.0" minGap="2.0"/>
    <vType id="connected_pCatchup" vClass="passenger" tau="0.1" carFollowModel="IDM" emergencyDecel="4.5" maxSpeed="40.00" color="0,0.8,0.3" accel="10.3" decel="1.7" sigma="0.0" minGap="2.0"/>
    <vType id="connected_pFollower" vClass="passenger" tau="0.1" carFollowModel="IDM" maxSpeed="40.00" color="1,1,0" accel="10.3" decel="1.7" sigma="0.0"  minGap="2.0" emergencyDecel="4.5"/>
    <vType id="connected_pLeader" vClass="passenger" length="5" carFollowModel="IDM" maxSpeed="40.00" lcCooperative="0.0" color="1,1,0" lcStrategic="1.0" accel="13.0" decel="1.5" emergencyDecel="4.5" lcSpeedGain="0.3" sigma="0.0" lcKeepRight="0.3"/>

    
	
    <trip id="start1Toend1_0" type="conventional"  from="start1" to="end1" depart="0.000000" />
    <trip id="start2Toend1_0" type="conventional"  from="start2" to="end1" depart="0.000000" />
    <trip id="start2Toend1_1" type="conventional"  from="start2" to="end1" depart="9.498800" />
    <trip id="start1Toend2_0" type="conventional"  from="start1" to="end2" depart="10.000000" />
    <trip id="start2Toend2_0" type="conventional"  from="start2" to="end2" depart="10.000000" />
    <trip id="start2Toend2_1" type="conventional"  from="start2" to="end2" depart="10.196901" />
    <trip id="start2Toend1_2" type="conventional"  from="start2" to="end1" depart="16.076102" />
    <trip id="start1Toend2_1" type="conventional"  from="start1" to="end2" depart="22.989920" />
    <trip id="start2Toend2_2" type="conventional"  from="start2" to="end2" depart="23.303258" />
    <trip id="start1Toend1_1" type="conventional"  from="start1" to="end1" depart="25.079810" />
    <trip id="start2Toend2_3" type="conventional"  from="start2" to="end2" depart="27.512703" />
    <trip id="start1Toend2_2" type="conventional"  from="start1" to="end2" depart="37.938798" />
    <trip id="start2Toend2_4" type="conventional"  from="start2" to="end2" depart="46.183224" />
    <trip id="start1Toend1_2" type="conventional"  from="start1" to="end1" depart="47.050320" />
    <trip id="start2Toend2_5" type="conventional"  from="start2" to="end2" depart="47.190229" />
    <trip id="start2Toend1_3" type="conventional"  from="start2" to="end1" depart="47.821938" />
    <trip id="start1Toend1_3" type="conventional"  from="start1" to="end1" depart="52.580325" />
    <trip id="start2Toend1_4" type="conventional"  from="start2" to="end1" depart="53.527234" />
    <trip id="start1Toend2_3" type="conventional"  from="start1" to="end2" depart="55.864118" />
    <trip id="start1Toend2_4" type="conventional"  from="start1" to="end2" depart="66.172994" />
    <trip id="start1Toend1_4" type="conventional"  from="start1" to="end1" depart="74.383461" />
    <trip id="start1Toend1_5" type="conventional"  from="start1" to="end1" depart="75.380191" />
    <trip id="start2Toend1_5" type="conventional"  from="start2" to="end1" depart="75.490831" />
    <trip id="start1Toend1_6" type="conventional"  from="start1" to="end1" depart="79.265600" />
    <trip id="start1Toend1_7" type="conventional"  from="start1" to="end1" depart="80.561061" />
    <trip id="start2Toend2_6" type="conventional"  from="start2" to="end2" depart="85.307254" />
    <trip id="start1Toend1_8" type="conventional"  from="start1" to="end1" depart="86.064625" />
    <trip id="start2Toend2_7" type="conventional"  from="start2" to="end2" depart="89.453996" />
    <trip id="start1Toend2_5" type="conventional"  from="start1" to="end2" depart="89.687749" />
    <trip id="start2Toend2_8" type="conventional"  from="start2" to="end2" depart="91.808708" />
    <trip id="start1Toend1_9" type="conventional"  from="start1" to="end1" depart="95.045223" />
    <trip id="start2Toend1_6" type="conventional"  from="start2" to="end1" depart="104.852721" />
    <trip id="start1Toend2_6" type="conventional"  from="start1" to="end2" depart="108.678895" />
    <trip id="start1Toend2_7" type="conventional"  from="start1" to="end2" depart="112.561084" />
    <trip id="start1Toend2_8" type="conventional"  from="start1" to="end2" depart="118.452808" />
    <trip id="start2Toend1_7" type="conventional"  from="start2" to="end1" depart="124.773048" />
    <trip id="start1Toend2_9" type="conventional"  from="start1" to="end2" depart="130.656732" />
    <trip id="start2Toend1_8" type="conventional"  from="start2" to="end1" depart="146.957190" />
    <trip id="start2Toend2_9" type="conventional"  from="start2" to="end2" depart="148.209016" />
    <trip id="start2Toend1_9" type="conventional"  from="start2" to="end1" depart="184.629633" />
</routes>
