<?xml version="1.0" encoding="UTF-8"?>

<routes>

	<route id="route0" edges="start1 end1" />
    <route id="route1" edges="start1 end2" />
    <route id="route2" edges="start2 end1" />
    <route id="route3" edges="start2 end2" />


    <vType id="conventional" vClass="passenger" tau="5.5" minGap="7.5" carFollowModel="IDM" maxSpeed="40.00"/>
    <vType id="conventional_human" vClass="passenger" tau="5.5" minGap="7.5" carFollowModel="IDM" maxSpeed="40.00" color="52,128,235"/>
    <!--vType id="conventional_human" vClass="passenger" tau="3.5" minGap="5.5" carFollowModel="IDM" maxSpeed="28.00" color="52,128,235"/-->
    <vType id="non_merging" vClass="passenger" tau="5.5" minGap="7.5" carFollowModel="IDM" maxSpeed="40.00"/>
    <vType id="merging" vClass="passenger" carFollowModel="IDM" emergencyDecel="4.5" length="5" tau="0.1" maxSpeed="40.00" color="1,1,0" accel="10.3" decel="1.7" sigma="0.0" minGap="2.0"/>
    <!--vType id="connected" vClass="passenger" tau="2.5" minGap="5.5" carFollowModel="IDM" maxSpeed="28.00" lcCooperative="0.0" color="1,1,0" lcStrategic="1.0" accel="3.0" decel="1.5" emergencyDecel="4.5" lcSpeedGain="0.3" sigma="0.0" lcKeepRight="0.3"-->
    <vType id="connected" vClass="passenger" tau="5.5" minGap="7.5" carFollowModel="IDM" maxSpeed="1.00" emergencyDecel="4.5"/>
    <vType id="routeByDistance" maxSpeed="1"/>
    <vType id="connected_pCatchupFollower" vClass="passenger" carFollowModel="IDM" emergencyDecel="4.5" length="5" tau="0.1" maxSpeed="40.00" color="1,1,0" accel="10.3" decel="1.7" sigma="0.0" minGap="2.0"/>
    <vType id="connected_pCatchup" vClass="passenger" tau="0.1" carFollowModel="IDM" emergencyDecel="4.5" maxSpeed="40.00" color="0,0.8,0.3" accel="10.3" decel="1.7" sigma="0.0" minGap="2.0"/>
    <vType id="connected_pFollower" vClass="passenger" tau="0.1" carFollowModel="IDM" maxSpeed="40.00" color="1,1,0" accel="10.3" decel="1.7" sigma="0.0"  minGap="2.0" emergencyDecel="4.5"/>
    <vType id="connected_pLeader" vClass="passenger" length="5" carFollowModel="IDM" maxSpeed="40.00" lcCooperative="0.0" color="1,1,0" lcStrategic="1.0" accel="13.0" decel="1.5" emergencyDecel="4.5" lcSpeedGain="0.3" sigma="0.0" lcKeepRight="0.3"/>

    
	
    <trip id="start1Toend1_0" type="conventional"  from="start1" to="end1" depart="0.000000" />
    <trip id="start2Toend1_0" type="conventional"  from="start2" to="end1" depart="0.000000" />
    <trip id="start1Toend1_1" type="conventional"  from="start1" to="end1" depart="7.561103" />
    <trip id="start1Toend2_0" type="conventional"  from="start1" to="end2" depart="10.000000" />
    <trip id="start2Toend2_0" type="conventional"  from="start2" to="end2" depart="10.000000" />
    <trip id="start2Toend2_1" type="conventional"  from="start2" to="end2" depart="10.984022" />
    <trip id="start2Toend1_1" type="conventional"  from="start2" to="end1" depart="20.832135" />
    <trip id="start2Toend2_2" type="conventional"  from="start2" to="end2" depart="26.596619" />
    <trip id="start1Toend1_2" type="conventional"  from="start1" to="end1" depart="32.307513" />
    <trip id="start2Toend2_3" type="conventional"  from="start2" to="end2" depart="37.537677" />
    <trip id="start2Toend1_2" type="conventional"  from="start2" to="end1" depart="41.474125" />
    <trip id="start1Toend2_1" type="conventional"  from="start1" to="end2" depart="45.886177" />
    <trip id="start2Toend1_3" type="conventional"  from="start2" to="end1" depart="53.975074" />
    <trip id="start1Toend1_3" type="conventional"  from="start1" to="end1" depart="55.438293" />
    <trip id="start2Toend1_4" type="conventional"  from="start2" to="end1" depart="56.875727" />
    <trip id="start1Toend2_2" type="conventional"  from="start1" to="end2" depart="62.106277" />
    <trip id="start2Toend1_5" type="conventional"  from="start2" to="end1" depart="65.393723" />
    <trip id="start1Toend2_3" type="conventional"  from="start1" to="end2" depart="69.019682" />
    <trip id="start1Toend2_4" type="conventional"  from="start1" to="end2" depart="69.731774" />
    <trip id="start2Toend2_4" type="conventional"  from="start2" to="end2" depart="75.276946" />
    <trip id="start2Toend1_6" type="conventional"  from="start2" to="end1" depart="76.234558" />
    <trip id="start1Toend2_5" type="conventional"  from="start1" to="end2" depart="79.852856" />
    <trip id="start1Toend2_6" type="conventional"  from="start1" to="end2" depart="81.039665" />
    <trip id="start1Toend1_4" type="conventional"  from="start1" to="end1" depart="85.311717" />
    <trip id="start2Toend2_5" type="conventional"  from="start2" to="end2" depart="89.191757" />
    <trip id="start2Toend1_7" type="conventional"  from="start2" to="end1" depart="91.449320" />
    <trip id="start1Toend1_5" type="conventional"  from="start1" to="end1" depart="99.033116" />
    <trip id="start1Toend1_6" type="conventional"  from="start1" to="end1" depart="99.353925" />
    <trip id="start1Toend1_7" type="conventional"  from="start1" to="end1" depart="102.010939" />
    <trip id="start1Toend1_8" type="conventional"  from="start1" to="end1" depart="108.294273" />
    <trip id="start2Toend1_8" type="conventional"  from="start2" to="end1" depart="109.829608" />
    <trip id="start2Toend2_6" type="conventional"  from="start2" to="end2" depart="136.894234" />
    <trip id="start2Toend2_7" type="conventional"  from="start2" to="end2" depart="141.067761" />
    <trip id="start1Toend1_9" type="conventional"  from="start1" to="end1" depart="154.433977" />
    <trip id="start2Toend2_8" type="conventional"  from="start2" to="end2" depart="155.007013" />
    <trip id="start1Toend1_10" type="conventional"  from="start1" to="end1" depart="155.249383" />
    <trip id="start1Toend1_11" type="conventional"  from="start1" to="end1" depart="155.378621" />
    <trip id="start2Toend2_9" type="conventional"  from="start2" to="end2" depart="155.794608" />
    <trip id="start2Toend1_9" type="conventional"  from="start2" to="end1" depart="162.504078" />
    <trip id="start1Toend1_12" type="conventional"  from="start1" to="end1" depart="166.273004" />
    <trip id="start2Toend1_10" type="conventional"  from="start2" to="end1" depart="166.273797" />
    <trip id="start1Toend2_7" type="conventional"  from="start1" to="end2" depart="166.719955" />
    <trip id="start1Toend1_13" type="conventional"  from="start1" to="end1" depart="168.667114" />
    <trip id="start2Toend2_10" type="conventional"  from="start2" to="end2" depart="175.754538" />
    <trip id="start1Toend2_8" type="conventional"  from="start1" to="end2" depart="178.520311" />
    <trip id="start2Toend2_11" type="conventional"  from="start2" to="end2" depart="182.648755" />
    <trip id="start2Toend1_11" type="conventional"  from="start2" to="end1" depart="183.724600" />
    <trip id="start2Toend2_12" type="conventional"  from="start2" to="end2" depart="196.199113" />
    <trip id="start2Toend1_12" type="conventional"  from="start2" to="end1" depart="196.806377" />
    <trip id="start2Toend2_13" type="conventional"  from="start2" to="end2" depart="198.589671" />
    <trip id="start1Toend2_9" type="conventional"  from="start1" to="end2" depart="203.217839" />
    <trip id="start1Toend1_14" type="conventional"  from="start1" to="end1" depart="213.589079" />
    <trip id="start1Toend1_15" type="conventional"  from="start1" to="end1" depart="214.529613" />
    <trip id="start2Toend1_13" type="conventional"  from="start2" to="end1" depart="218.696010" />
    <trip id="start2Toend2_14" type="conventional"  from="start2" to="end2" depart="219.790762" />
    <trip id="start2Toend2_15" type="conventional"  from="start2" to="end2" depart="226.247239" />
    <trip id="start1Toend1_16" type="conventional"  from="start1" to="end1" depart="226.382578" />
    <trip id="start1Toend1_17" type="conventional"  from="start1" to="end1" depart="231.744921" />
    <trip id="start1Toend1_18" type="conventional"  from="start1" to="end1" depart="233.116166" />
    <trip id="start1Toend1_19" type="conventional"  from="start1" to="end1" depart="240.996242" />
    <trip id="start1Toend1_20" type="conventional"  from="start1" to="end1" depart="242.597531" />
    <trip id="start1Toend1_21" type="conventional"  from="start1" to="end1" depart="253.908695" />
    <trip id="start2Toend2_16" type="conventional"  from="start2" to="end2" depart="255.825503" />
    <trip id="start1Toend2_10" type="conventional"  from="start1" to="end2" depart="258.446231" />
    <trip id="start1Toend1_22" type="conventional"  from="start1" to="end1" depart="260.981633" />
    <trip id="start2Toend1_14" type="conventional"  from="start2" to="end1" depart="262.673825" />
    <trip id="start2Toend2_17" type="conventional"  from="start2" to="end2" depart="265.274975" />
    <trip id="start1Toend1_23" type="conventional"  from="start1" to="end1" depart="267.815817" />
    <trip id="start1Toend2_11" type="conventional"  from="start1" to="end2" depart="281.596104" />
    <trip id="start1Toend1_24" type="conventional"  from="start1" to="end1" depart="281.678882" />
    <trip id="start2Toend1_15" type="conventional"  from="start2" to="end1" depart="299.583570" />
    <trip id="start1Toend2_12" type="conventional"  from="start1" to="end2" depart="310.431688" />
    <trip id="start2Toend1_16" type="conventional"  from="start2" to="end1" depart="313.827752" />
    <trip id="start1Toend1_25" type="conventional"  from="start1" to="end1" depart="318.678336" />
    <trip id="start2Toend2_18" type="conventional"  from="start2" to="end2" depart="327.574490" />
    <trip id="start1Toend1_26" type="conventional"  from="start1" to="end1" depart="328.062211" />
    <trip id="start1Toend1_27" type="conventional"  from="start1" to="end1" depart="328.198947" />
    <trip id="start1Toend1_28" type="conventional"  from="start1" to="end1" depart="333.641258" />
    <trip id="start2Toend2_19" type="conventional"  from="start2" to="end2" depart="335.162529" />
    <trip id="start2Toend2_20" type="conventional"  from="start2" to="end2" depart="346.265862" />
    <trip id="start2Toend2_21" type="conventional"  from="start2" to="end2" depart="352.323452" />
    <trip id="start1Toend2_13" type="conventional"  from="start1" to="end2" depart="355.150602" />
    <trip id="start2Toend1_17" type="conventional"  from="start2" to="end1" depart="371.965804" />
    <trip id="start2Toend1_18" type="conventional"  from="start2" to="end1" depart="374.602476" />
    <trip id="start2Toend1_19" type="conventional"  from="start2" to="end1" depart="378.108418" />
    <trip id="start2Toend2_22" type="conventional"  from="start2" to="end2" depart="380.934721" />
    <trip id="start1Toend1_29" type="conventional"  from="start1" to="end1" depart="394.661134" />
    <trip id="start2Toend1_20" type="conventional"  from="start2" to="end1" depart="396.168941" />
    <trip id="start2Toend1_21" type="conventional"  from="start2" to="end1" depart="400.192337" />
    <trip id="start2Toend1_22" type="conventional"  from="start2" to="end1" depart="403.045439" />
    <trip id="start2Toend2_23" type="conventional"  from="start2" to="end2" depart="411.810920" />
    <trip id="start1Toend2_14" type="conventional"  from="start1" to="end2" depart="421.013001" />
    <trip id="start1Toend2_15" type="conventional"  from="start1" to="end2" depart="426.157033" />
    <trip id="start2Toend2_24" type="conventional"  from="start2" to="end2" depart="426.467946" />
    <trip id="start2Toend1_23" type="conventional"  from="start2" to="end1" depart="427.384841" />
    <trip id="start1Toend2_16" type="conventional"  from="start1" to="end2" depart="431.457238" />
    <trip id="start2Toend2_25" type="conventional"  from="start2" to="end2" depart="435.896149" />
    <trip id="start1Toend2_17" type="conventional"  from="start1" to="end2" depart="437.126594" />
    <trip id="start1Toend1_30" type="conventional"  from="start1" to="end1" depart="445.637799" />
    <trip id="start1Toend2_18" type="conventional"  from="start1" to="end2" depart="448.954311" />
    <trip id="start2Toend1_24" type="conventional"  from="start2" to="end1" depart="450.198603" />
    <trip id="start2Toend2_26" type="conventional"  from="start2" to="end2" depart="452.163368" />
    <trip id="start2Toend1_25" type="conventional"  from="start2" to="end1" depart="455.856415" />
    <trip id="start2Toend1_26" type="conventional"  from="start2" to="end1" depart="459.779743" />
    <trip id="start2Toend2_27" type="conventional"  from="start2" to="end2" depart="467.794972" />
    <trip id="start1Toend1_31" type="conventional"  from="start1" to="end1" depart="470.135680" />
    <trip id="start2Toend1_27" type="conventional"  from="start2" to="end1" depart="479.710040" />
    <trip id="start1Toend1_32" type="conventional"  from="start1" to="end1" depart="480.545943" />
    <trip id="start1Toend2_19" type="conventional"  from="start1" to="end2" depart="485.438463" />
    <trip id="start1Toend2_20" type="conventional"  from="start1" to="end2" depart="489.284910" />
    <trip id="start2Toend1_28" type="conventional"  from="start2" to="end1" depart="490.889478" />
    <trip id="start1Toend1_33" type="conventional"  from="start1" to="end1" depart="504.095956" />
    <trip id="start2Toend2_28" type="conventional"  from="start2" to="end2" depart="507.086383" />
    <trip id="start2Toend2_29" type="conventional"  from="start2" to="end2" depart="507.386736" />
    <trip id="start2Toend2_30" type="conventional"  from="start2" to="end2" depart="508.604279" />
    <trip id="start2Toend1_29" type="conventional"  from="start2" to="end1" depart="509.575230" />
    <trip id="start2Toend1_30" type="conventional"  from="start2" to="end1" depart="525.724697" />
    <trip id="start1Toend1_34" type="conventional"  from="start1" to="end1" depart="529.337409" />
    <trip id="start2Toend1_31" type="conventional"  from="start2" to="end1" depart="529.615007" />
    <trip id="start2Toend1_32" type="conventional"  from="start2" to="end1" depart="542.886247" />
    <trip id="start2Toend1_33" type="conventional"  from="start2" to="end1" depart="543.679971" />
    <trip id="start1Toend1_35" type="conventional"  from="start1" to="end1" depart="545.423702" />
    <trip id="start1Toend1_36" type="conventional"  from="start1" to="end1" depart="550.047351" />
    <trip id="start2Toend1_34" type="conventional"  from="start2" to="end1" depart="550.670695" />
    <trip id="start2Toend1_35" type="conventional"  from="start2" to="end1" depart="556.167619" />
    <trip id="start1Toend1_37" type="conventional"  from="start1" to="end1" depart="556.421107" />
    <trip id="start2Toend1_36" type="conventional"  from="start2" to="end1" depart="557.230000" />
    <trip id="start2Toend1_37" type="conventional"  from="start2" to="end1" depart="559.769667" />
    <trip id="start2Toend1_38" type="conventional"  from="start2" to="end1" depart="560.999514" />
    <trip id="start2Toend2_31" type="conventional"  from="start2" to="end2" depart="561.351405" />
    <trip id="start1Toend2_21" type="conventional"  from="start1" to="end2" depart="561.518276" />
    <trip id="start1Toend1_38" type="conventional"  from="start1" to="end1" depart="562.855175" />
    <trip id="start1Toend1_39" type="conventional"  from="start1" to="end1" depart="563.836855" />
    <trip id="start2Toend1_39" type="conventional"  from="start2" to="end1" depart="569.922468" />
    <trip id="start2Toend2_32" type="conventional"  from="start2" to="end2" depart="573.043680" />
    <trip id="start2Toend2_33" type="conventional"  from="start2" to="end2" depart="590.578160" />
    <trip id="start2Toend1_40" type="conventional"  from="start2" to="end1" depart="592.793131" />
    <trip id="start1Toend2_22" type="conventional"  from="start1" to="end2" depart="595.602670" />
    <trip id="start1Toend1_40" type="conventional"  from="start1" to="end1" depart="595.740279" />
    <trip id="start1Toend2_23" type="conventional"  from="start1" to="end2" depart="596.815490" />
    <trip id="start1Toend2_24" type="conventional"  from="start1" to="end2" depart="596.977995" />
    <trip id="start2Toend2_34" type="conventional"  from="start2" to="end2" depart="600.204596" />
    <trip id="start2Toend1_41" type="conventional"  from="start2" to="end1" depart="602.576666" />
    <trip id="start1Toend1_41" type="conventional"  from="start1" to="end1" depart="604.748835" />
    <trip id="start2Toend1_42" type="conventional"  from="start2" to="end1" depart="608.069331" />
    <trip id="start2Toend2_35" type="conventional"  from="start2" to="end2" depart="611.140011" />
    <trip id="start1Toend2_25" type="conventional"  from="start1" to="end2" depart="619.100567" />
    <trip id="start1Toend1_42" type="conventional"  from="start1" to="end1" depart="622.378915" />
    <trip id="start2Toend1_43" type="conventional"  from="start2" to="end1" depart="625.283875" />
    <trip id="start1Toend1_43" type="conventional"  from="start1" to="end1" depart="630.173857" />
    <trip id="start1Toend1_44" type="conventional"  from="start1" to="end1" depart="633.726919" />
    <trip id="start1Toend1_45" type="conventional"  from="start1" to="end1" depart="639.125123" />
    <trip id="start2Toend2_36" type="conventional"  from="start2" to="end2" depart="639.871094" />
    <trip id="start1Toend2_26" type="conventional"  from="start1" to="end2" depart="641.052147" />
    <trip id="start1Toend2_27" type="conventional"  from="start1" to="end2" depart="651.231573" />
    <trip id="start2Toend1_44" type="conventional"  from="start2" to="end1" depart="651.993853" />
    <trip id="start1Toend1_46" type="conventional"  from="start1" to="end1" depart="653.136488" />
    <trip id="start2Toend1_45" type="conventional"  from="start2" to="end1" depart="653.763127" />
    <trip id="start2Toend2_37" type="conventional"  from="start2" to="end2" depart="659.376697" />
    <trip id="start2Toend2_38" type="conventional"  from="start2" to="end2" depart="660.419706" />
    <trip id="start2Toend2_39" type="conventional"  from="start2" to="end2" depart="660.987679" />
    <trip id="start2Toend1_46" type="conventional"  from="start2" to="end1" depart="664.940679" />
    <trip id="start2Toend1_47" type="conventional"  from="start2" to="end1" depart="669.914376" />
    <trip id="start2Toend2_40" type="conventional"  from="start2" to="end2" depart="676.645044" />
    <trip id="start2Toend1_48" type="conventional"  from="start2" to="end1" depart="678.852612" />
    <trip id="start2Toend2_41" type="conventional"  from="start2" to="end2" depart="683.800635" />
    <trip id="start2Toend2_42" type="conventional"  from="start2" to="end2" depart="684.933023" />
    <trip id="start2Toend1_49" type="conventional"  from="start2" to="end1" depart="685.287365" />
    <trip id="start2Toend1_50" type="conventional"  from="start2" to="end1" depart="689.576652" />
    <trip id="start1Toend2_28" type="conventional"  from="start1" to="end2" depart="690.088465" />
    <trip id="start2Toend1_51" type="conventional"  from="start2" to="end1" depart="696.239068" />
    <trip id="start1Toend2_29" type="conventional"  from="start1" to="end2" depart="696.797586" />
    <trip id="start2Toend2_43" type="conventional"  from="start2" to="end2" depart="696.927584" />
    <trip id="start2Toend2_44" type="conventional"  from="start2" to="end2" depart="700.046897" />
    <trip id="start1Toend2_30" type="conventional"  from="start1" to="end2" depart="704.679459" />
    <trip id="start1Toend1_47" type="conventional"  from="start1" to="end1" depart="704.763867" />
    <trip id="start1Toend2_31" type="conventional"  from="start1" to="end2" depart="706.404767" />
    <trip id="start1Toend2_32" type="conventional"  from="start1" to="end2" depart="711.563016" />
    <trip id="start2Toend1_52" type="conventional"  from="start2" to="end1" depart="714.564249" />
    <trip id="start1Toend2_33" type="conventional"  from="start1" to="end2" depart="716.553519" />
    <trip id="start2Toend1_53" type="conventional"  from="start2" to="end1" depart="716.789096" />
    <trip id="start1Toend2_34" type="conventional"  from="start1" to="end2" depart="720.488129" />
    <trip id="start1Toend2_35" type="conventional"  from="start1" to="end2" depart="722.681363" />
    <trip id="start2Toend2_45" type="conventional"  from="start2" to="end2" depart="725.107342" />
    <trip id="start1Toend2_36" type="conventional"  from="start1" to="end2" depart="728.721188" />
    <trip id="start1Toend2_37" type="conventional"  from="start1" to="end2" depart="734.520117" />
    <trip id="start1Toend2_38" type="conventional"  from="start1" to="end2" depart="741.310820" />
    <trip id="start1Toend2_39" type="conventional"  from="start1" to="end2" depart="742.631138" />
    <trip id="start2Toend1_54" type="conventional"  from="start2" to="end1" depart="745.567894" />
    <trip id="start1Toend1_48" type="conventional"  from="start1" to="end1" depart="746.207240" />
    <trip id="start2Toend1_55" type="conventional"  from="start2" to="end1" depart="747.383410" />
    <trip id="start1Toend1_49" type="conventional"  from="start1" to="end1" depart="757.777916" />
    <trip id="start1Toend2_40" type="conventional"  from="start1" to="end2" depart="757.807047" />
    <trip id="start2Toend2_46" type="conventional"  from="start2" to="end2" depart="758.607896" />
    <trip id="start2Toend2_47" type="conventional"  from="start2" to="end2" depart="760.461091" />
    <trip id="start2Toend1_56" type="conventional"  from="start2" to="end1" depart="760.843083" />
    <trip id="start2Toend1_57" type="conventional"  from="start2" to="end1" depart="770.428617" />
    <trip id="start2Toend2_48" type="conventional"  from="start2" to="end2" depart="772.885270" />
    <trip id="start1Toend2_41" type="conventional"  from="start1" to="end2" depart="773.847102" />
    <trip id="start2Toend1_58" type="conventional"  from="start2" to="end1" depart="776.371945" />
    <trip id="start1Toend1_50" type="conventional"  from="start1" to="end1" depart="778.751212" />
    <trip id="start1Toend1_51" type="conventional"  from="start1" to="end1" depart="781.148849" />
    <trip id="start2Toend2_49" type="conventional"  from="start2" to="end2" depart="784.528617" />
    <trip id="start1Toend2_42" type="conventional"  from="start1" to="end2" depart="785.331699" />
    <trip id="start1Toend1_52" type="conventional"  from="start1" to="end1" depart="786.876768" />
    <trip id="start1Toend2_43" type="conventional"  from="start1" to="end2" depart="789.345864" />
    <trip id="start2Toend2_50" type="conventional"  from="start2" to="end2" depart="798.789321" />
    <trip id="start1Toend2_44" type="conventional"  from="start1" to="end2" depart="814.239114" />
    <trip id="start1Toend1_53" type="conventional"  from="start1" to="end1" depart="818.096700" />
    <trip id="start1Toend1_54" type="conventional"  from="start1" to="end1" depart="825.870988" />
    <trip id="start2Toend1_59" type="conventional"  from="start2" to="end1" depart="826.467654" />
    <trip id="start1Toend2_45" type="conventional"  from="start1" to="end2" depart="832.179357" />
    <trip id="start1Toend1_55" type="conventional"  from="start1" to="end1" depart="837.034848" />
    <trip id="start2Toend1_60" type="conventional"  from="start2" to="end1" depart="838.498656" />
    <trip id="start2Toend2_51" type="conventional"  from="start2" to="end2" depart="849.849892" />
    <trip id="start1Toend2_46" type="conventional"  from="start1" to="end2" depart="871.752519" />
    <trip id="start2Toend1_61" type="conventional"  from="start2" to="end1" depart="883.112437" />
    <trip id="start2Toend2_52" type="conventional"  from="start2" to="end2" depart="886.373256" />
    <trip id="start1Toend1_56" type="conventional"  from="start1" to="end1" depart="903.130425" />
    <trip id="start1Toend1_57" type="conventional"  from="start1" to="end1" depart="903.913692" />
    <trip id="start2Toend1_62" type="conventional"  from="start2" to="end1" depart="906.334523" />
    <trip id="start1Toend1_58" type="conventional"  from="start1" to="end1" depart="908.723648" />
    <trip id="start1Toend1_59" type="conventional"  from="start1" to="end1" depart="913.681743" />
    <trip id="start1Toend2_47" type="conventional"  from="start1" to="end2" depart="914.610741" />
    <trip id="start1Toend1_60" type="conventional"  from="start1" to="end1" depart="916.779491" />
    <trip id="start1Toend1_61" type="conventional"  from="start1" to="end1" depart="921.501617" />
    <trip id="start1Toend1_62" type="conventional"  from="start1" to="end1" depart="922.966313" />
    <trip id="start1Toend2_48" type="conventional"  from="start1" to="end2" depart="923.572604" />
    <trip id="start2Toend1_63" type="conventional"  from="start2" to="end1" depart="926.922589" />
    <trip id="start1Toend1_63" type="conventional"  from="start1" to="end1" depart="934.999970" />
    <trip id="start1Toend1_64" type="conventional"  from="start1" to="end1" depart="935.362721" />
    <trip id="start1Toend2_49" type="conventional"  from="start1" to="end2" depart="941.471429" />
    <trip id="start2Toend1_64" type="conventional"  from="start2" to="end1" depart="944.567257" />
    <trip id="start2Toend1_65" type="conventional"  from="start2" to="end1" depart="945.249795" />
    <trip id="start2Toend1_66" type="conventional"  from="start2" to="end1" depart="949.887902" />
    <trip id="start1Toend2_50" type="conventional"  from="start1" to="end2" depart="955.702265" />
    <trip id="start1Toend1_65" type="conventional"  from="start1" to="end1" depart="979.202485" />
    <trip id="start2Toend1_67" type="conventional"  from="start2" to="end1" depart="983.358459" />
    <trip id="start2Toend1_68" type="conventional"  from="start2" to="end1" depart="987.992221" />
    <trip id="start1Toend2_51" type="conventional"  from="start1" to="end2" depart="997.533358" />
    <trip id="start2Toend1_69" type="conventional"  from="start2" to="end1" depart="997.942717" />
    <trip id="start1Toend2_52" type="conventional"  from="start1" to="end2" depart="1001.748684" />
    <trip id="start1Toend1_66" type="conventional"  from="start1" to="end1" depart="1012.317830" />
    <trip id="start2Toend1_70" type="conventional"  from="start2" to="end1" depart="1014.410793" />
    <trip id="start1Toend2_53" type="conventional"  from="start1" to="end2" depart="1015.578009" />
    <trip id="start1Toend2_54" type="conventional"  from="start1" to="end2" depart="1036.175148" />
    <trip id="start2Toend1_71" type="conventional"  from="start2" to="end1" depart="1037.513929" />
    <trip id="start2Toend1_72" type="conventional"  from="start2" to="end1" depart="1044.482752" />
    <trip id="start1Toend2_55" type="conventional"  from="start1" to="end2" depart="1056.627918" />
    <trip id="start1Toend1_67" type="conventional"  from="start1" to="end1" depart="1057.938023" />
    <trip id="start2Toend2_53" type="conventional"  from="start2" to="end2" depart="1062.913994" />
    <trip id="start2Toend2_54" type="conventional"  from="start2" to="end2" depart="1063.553141" />
    <trip id="start2Toend1_73" type="conventional"  from="start2" to="end1" depart="1074.621346" />
    <trip id="start1Toend1_68" type="conventional"  from="start1" to="end1" depart="1079.653959" />
    <trip id="start1Toend1_69" type="conventional"  from="start1" to="end1" depart="1080.844914" />
    <trip id="start2Toend1_74" type="conventional"  from="start2" to="end1" depart="1085.189363" />
    <trip id="start1Toend2_56" type="conventional"  from="start1" to="end2" depart="1087.374754" />
    <trip id="start1Toend1_70" type="conventional"  from="start1" to="end1" depart="1089.128784" />
    <trip id="start1Toend2_57" type="conventional"  from="start1" to="end2" depart="1089.957697" />
    <trip id="start1Toend2_58" type="conventional"  from="start1" to="end2" depart="1091.428368" />
    <trip id="start1Toend1_71" type="conventional"  from="start1" to="end1" depart="1095.530625" />
    <trip id="start2Toend2_55" type="conventional"  from="start2" to="end2" depart="1099.497617" />
    <trip id="start1Toend1_72" type="conventional"  from="start1" to="end1" depart="1103.767038" />
    <trip id="start2Toend2_56" type="conventional"  from="start2" to="end2" depart="1104.715663" />
    <trip id="start1Toend1_73" type="conventional"  from="start1" to="end1" depart="1105.748427" />
    <trip id="start2Toend2_57" type="conventional"  from="start2" to="end2" depart="1106.057306" />
    <trip id="start2Toend1_75" type="conventional"  from="start2" to="end1" depart="1109.579443" />
    <trip id="start1Toend2_59" type="conventional"  from="start1" to="end2" depart="1127.141139" />
    <trip id="start1Toend1_74" type="conventional"  from="start1" to="end1" depart="1127.280533" />
    <trip id="start2Toend2_58" type="conventional"  from="start2" to="end2" depart="1128.824540" />
    <trip id="start2Toend2_59" type="conventional"  from="start2" to="end2" depart="1128.992813" />
    <trip id="start1Toend2_60" type="conventional"  from="start1" to="end2" depart="1144.810762" />
    <trip id="start1Toend1_75" type="conventional"  from="start1" to="end1" depart="1144.833882" />
    <trip id="start2Toend1_76" type="conventional"  from="start2" to="end1" depart="1149.914838" />
    <trip id="start1Toend1_76" type="conventional"  from="start1" to="end1" depart="1158.142307" />
    <trip id="start1Toend2_61" type="conventional"  from="start1" to="end2" depart="1162.897468" />
    <trip id="start2Toend1_77" type="conventional"  from="start2" to="end1" depart="1168.039842" />
    <trip id="start2Toend1_78" type="conventional"  from="start2" to="end1" depart="1170.894853" />
    <trip id="start1Toend2_62" type="conventional"  from="start1" to="end2" depart="1171.763217" />
    <trip id="start2Toend1_79" type="conventional"  from="start2" to="end1" depart="1171.944233" />
    <trip id="start2Toend1_80" type="conventional"  from="start2" to="end1" depart="1172.020082" />