<?xml version="1.0" encoding="UTF-8"?>

<routes>

	<route id="route0" edges="start1 end1" />
    <route id="route1" edges="start1 end2" />
    <route id="route2" edges="start2 end1" />
    <route id="route3" edges="start2 end2" />


    <vType id="conventional" vClass="passenger" tau="5.5" minGap="7.5" carFollowModel="IDM" maxSpeed="40.00"/>
    <vType id="conventional_human" vClass="passenger" tau="5.5" minGap="7.5" carFollowModel="IDM" maxSpeed="40.00" color="52,128,235"/>
    <!--vType id="conventional_human" vClass="passenger" tau="3.5" minGap="5.5" carFollowModel="IDM" maxSpeed="28.00" color="52,128,235"/-->
    <vType id="non_merging" vClass="passenger" tau="5.5" minGap="7.5" carFollowModel="IDM" maxSpeed="40.00"/>
    <vType id="merging" vClass="passenger" carFollowModel="IDM" emergencyDecel="4.5" length="5" tau="0.1" maxSpeed="40.00" color="1,1,0" accel="10.3" decel="1.7" sigma="0.0" minGap="2.0"/>
    <!--vType id="connected" vClass="passenger" tau="2.5" minGap="5.5" carFollowModel="IDM" maxSpeed="28.00" lcCooperative="0.0" color="1,1,0" lcStrategic="1.0" accel="3.0" decel="1.5" emergencyDecel="4.5" lcSpeedGain="0.3" sigma="0.0" lcKeepRight="0.3"-->
    <vType id="connected" vClass="passenger" tau="5.5" minGap="7.5" carFollowModel="IDM" maxSpeed="1.00" emergencyDecel="4.5"/>
    <vType id="routeByDistance" maxSpeed="1"/>
    <vType id="connected_pCatchupFollower" vClass="passenger" carFollowModel="IDM" emergencyDecel="4.5" length="5" tau="0.1" maxSpeed="40.00" color="1,1,0" accel="10.3" decel="1.7" sigma="0.0" minGap="2.0"/>
    <vType id="connected_pCatchup" vClass="passenger" tau="0.1" carFollowModel="IDM" emergencyDecel="4.5" maxSpeed="40.00" color="0,0.8,0.3" accel="10.3" decel="1.7" sigma="0.0" minGap="2.0"/>
    <vType id="connected_pFollower" vClass="passenger" tau="0.1" carFollowModel="IDM" maxSpeed="40.00" color="1,1,0" accel="10.3" decel="1.7" sigma="0.0"  minGap="2.0" emergencyDecel="4.5"/>
    <vType id="connected_pLeader" vClass="passenger" length="5" carFollowModel="IDM" maxSpeed="40.00" lcCooperative="0.0" color="1,1,0" lcStrategic="1.0" accel="13.0" decel="1.5" emergencyDecel="4.5" lcSpeedGain="0.3" sigma="0.0" lcKeepRight="0.3"/>

    
	
    <trip id="start1Toend1_0" type="conventional"  from="start1" to="end1" depart="0.000000" />
    <trip id="start2Toend1_0" type="conventional"  from="start2" to="end1" depart="0.000000" />
    <trip id="start2Toend1_1" type="conventional"  from="start2" to="end1" depart="7.324908" />
    <trip id="start1Toend2_0" type="conventional"  from="start1" to="end2" depart="10.000000" />
    <trip id="start2Toend2_0" type="conventional"  from="start2" to="end2" depart="10.000000" />
    <trip id="start1Toend2_1" type="conventional"  from="start1" to="end2" depart="10.455445" />
    <trip id="start1Toend1_1" type="conventional"  from="start1" to="end1" depart="12.920931" />
    <trip id="start2Toend1_2" type="conventional"  from="start2" to="end1" depart="15.069967" />
    <trip id="start1Toend2_2" type="conventional"  from="start1" to="end2" depart="23.532015" />
    <trip id="start1Toend2_3" type="conventional"  from="start1" to="end2" depart="29.551795" />
    <trip id="start1Toend1_2" type="conventional"  from="start1" to="end1" depart="29.890841" />
    <trip id="start2Toend1_3" type="conventional"  from="start2" to="end1" depart="33.457322" />
    <trip id="start1Toend2_4" type="conventional"  from="start1" to="end2" depart="34.715833" />
    <trip id="start1Toend1_3" type="conventional"  from="start1" to="end1" depart="42.358616" />
    <trip id="start1Toend2_5" type="conventional"  from="start1" to="end2" depart="44.264431" />
    <trip id="start1Toend1_4" type="conventional"  from="start1" to="end1" depart="47.210695" />
    <trip id="start2Toend2_1" type="conventional"  from="start2" to="end2" depart="47.215874" />
    <trip id="start1Toend2_6" type="conventional"  from="start1" to="end2" depart="48.919011" />
    <trip id="start1Toend2_7" type="conventional"  from="start1" to="end2" depart="61.140596" />
    <trip id="start2Toend2_2" type="conventional"  from="start2" to="end2" depart="62.419948" />
    <trip id="start2Toend2_3" type="conventional"  from="start2" to="end2" depart="65.574480" />
    <trip id="start1Toend2_8" type="conventional"  from="start1" to="end2" depart="67.099797" />
    <trip id="start2Toend2_4" type="conventional"  from="start2" to="end2" depart="78.484083" />
    <trip id="start1Toend1_5" type="conventional"  from="start1" to="end1" depart="78.622786" />
    <trip id="start2Toend2_5" type="conventional"  from="start2" to="end2" depart="84.011388" />
    <trip id="start2Toend2_6" type="conventional"  from="start2" to="end2" depart="88.736149" />
    <trip id="start2Toend2_7" type="conventional"  from="start2" to="end2" depart="90.281091" />
    <trip id="start2Toend2_8" type="conventional"  from="start2" to="end2" depart="90.962807" />
    <trip id="start2Toend2_9" type="conventional"  from="start2" to="end2" depart="96.380182" />
    <trip id="start2Toend2_10" type="conventional"  from="start2" to="end2" depart="96.879700" />
    <trip id="start1Toend2_9" type="conventional"  from="start1" to="end2" depart="99.915077" />
    <trip id="start1Toend2_10" type="conventional"  from="start1" to="end2" depart="103.941585" />
    <trip id="start2Toend1_4" type="conventional"  from="start2" to="end1" depart="104.374623" />
    <trip id="start2Toend1_5" type="conventional"  from="start2" to="end1" depart="105.978100" />
    <trip id="start1Toend2_11" type="conventional"  from="start1" to="end2" depart="106.510162" />
    <trip id="start1Toend1_6" type="conventional"  from="start1" to="end1" depart="115.771259" />
    <trip id="start2Toend1_6" type="conventional"  from="start2" to="end1" depart="116.630878" />
    <trip id="start1Toend1_7" type="conventional"  from="start1" to="end1" depart="117.657544" />
    <trip id="start2Toend2_11" type="conventional"  from="start2" to="end2" depart="123.492401" />
    <trip id="start1Toend2_12" type="conventional"  from="start1" to="end2" depart="124.646849" />
    <trip id="start1Toend2_13" type="conventional"  from="start1" to="end2" depart="127.628578" />
    <trip id="start2Toend1_7" type="conventional"  from="start2" to="end1" depart="128.513447" />
    <trip id="start2Toend1_8" type="conventional"  from="start2" to="end1" depart="129.234097" />
    <trip id="start1Toend2_14" type="conventional"  from="start1" to="end2" depart="135.053903" />
    <trip id="start1Toend1_8" type="conventional"  from="start1" to="end1" depart="137.080083" />
    <trip id="start2Toend1_9" type="conventional"  from="start2" to="end1" depart="141.242519" />
    <trip id="start2Toend2_12" type="conventional"  from="start2" to="end2" depart="146.526046" />
    <trip id="start2Toend1_10" type="conventional"  from="start2" to="end1" depart="147.908443" />
    <trip id="start1Toend2_15" type="conventional"  from="start1" to="end2" depart="148.409711" />
    <trip id="start2Toend1_11" type="conventional"  from="start2" to="end1" depart="149.121417" />
    <trip id="start1Toend1_9" type="conventional"  from="start1" to="end1" depart="150.146670" />
    <trip id="start2Toend1_12" type="conventional"  from="start2" to="end1" depart="151.330641" />
    <trip id="start1Toend2_16" type="conventional"  from="start1" to="end2" depart="152.309310" />
    <trip id="start1Toend2_17" type="conventional"  from="start1" to="end2" depart="154.552981" />
    <trip id="start1Toend1_10" type="conventional"  from="start1" to="end1" depart="154.808885" />
    <trip id="start2Toend1_13" type="conventional"  from="start2" to="end1" depart="162.584673" />
    <trip id="start1Toend1_11" type="conventional"  from="start1" to="end1" depart="163.418687" />
    <trip id="start1Toend1_12" type="conventional"  from="start1" to="end1" depart="164.013115" />
    <trip id="start2Toend1_14" type="conventional"  from="start2" to="end1" depart="165.644687" />
    <trip id="start1Toend2_18" type="conventional"  from="start1" to="end2" depart="166.734436" />
    <trip id="start1Toend1_13" type="conventional"  from="start1" to="end1" depart="175.520500" />
    <trip id="start2Toend1_15" type="conventional"  from="start2" to="end1" depart="178.145763" />
    <trip id="start1Toend1_14" type="conventional"  from="start1" to="end1" depart="178.798655" />
    <trip id="start2Toend2_13" type="conventional"  from="start2" to="end2" depart="184.046158" />
    <trip id="start2Toend1_16" type="conventional"  from="start2" to="end1" depart="186.376087" />
    <trip id="start1Toend2_19" type="conventional"  from="start1" to="end2" depart="188.288219" />
    <trip id="start1Toend2_20" type="conventional"  from="start1" to="end2" depart="190.217629" />
    <trip id="start1Toend1_15" type="conventional"  from="start1" to="end1" depart="194.070217" />
    <trip id="start2Toend2_14" type="conventional"  from="start2" to="end2" depart="196.182696" />
    <trip id="start1Toend2_21" type="conventional"  from="start1" to="end2" depart="197.915543" />
    <trip id="start2Toend1_17" type="conventional"  from="start2" to="end1" depart="202.555634" />
    <trip id="start1Toend1_16" type="conventional"  from="start1" to="end1" depart="205.522359" />
    <trip id="start1Toend2_22" type="conventional"  from="start1" to="end2" depart="206.064844" />
    <trip id="start1Toend1_17" type="conventional"  from="start1" to="end1" depart="208.961745" />
    <trip id="start2Toend1_18" type="conventional"  from="start2" to="end1" depart="208.987997" />
    <trip id="start2Toend1_19" type="conventional"  from="start2" to="end1" depart="218.481795" />
    <trip id="start2Toend1_20" type="conventional"  from="start2" to="end1" depart="224.094909" />
    <trip id="start2Toend2_15" type="conventional"  from="start2" to="end2" depart="226.570264" />
    <trip id="start1Toend1_18" type="conventional"  from="start1" to="end1" depart="230.813318" />
    <trip id="start1Toend2_23" type="conventional"  from="start1" to="end2" depart="231.235813" />
    <trip id="start2Toend2_16" type="conventional"  from="start2" to="end2" depart="233.078686" />
    <trip id="start1Toend1_19" type="conventional"  from="start1" to="end1" depart="238.939979" />
    <trip id="start1Toend2_24" type="conventional"  from="start1" to="end2" depart="242.044143" />
    <trip id="start1Toend1_20" type="conventional"  from="start1" to="end1" depart="247.165418" />
    <trip id="start2Toend2_17" type="conventional"  from="start2" to="end2" depart="247.922134" />
    <trip id="start2Toend2_18" type="conventional"  from="start2" to="end2" depart="248.135859" />
    <trip id="start2Toend2_19" type="conventional"  from="start2" to="end2" depart="250.966593" />
    <trip id="start2Toend1_21" type="conventional"  from="start2" to="end1" depart="252.660039" />
    <trip id="start2Toend1_22" type="conventional"  from="start2" to="end1" depart="253.051601" />
    <trip id="start1Toend1_21" type="conventional"  from="start1" to="end1" depart="254.815245" />
    <trip id="start2Toend1_23" type="conventional"  from="start2" to="end1" depart="255.474594" />
    <trip id="start1Toend1_22" type="conventional"  from="start1" to="end1" depart="256.447209" />
    <trip id="start1Toend1_23" type="conventional"  from="start1" to="end1" depart="259.522593" />
    <trip id="start2Toend1_24" type="conventional"  from="start2" to="end1" depart="262.978183" />
    <trip id="start1Toend1_24" type="conventional"  from="start1" to="end1" depart="269.172877" />
    <trip id="start1Toend2_25" type="conventional"  from="start1" to="end2" depart="269.814241" />
    <trip id="start2Toend1_25" type="conventional"  from="start2" to="end1" depart="274.634056" />
    <trip id="start1Toend1_25" type="conventional"  from="start1" to="end1" depart="276.261469" />
    <trip id="start1Toend2_26" type="conventional"  from="start1" to="end2" depart="278.743580" />
    <trip id="start1Toend1_26" type="conventional"  from="start1" to="end1" depart="279.158202" />
    <trip id="start1Toend2_27" type="conventional"  from="start1" to="end2" depart="281.175015" />
    <trip id="start1Toend1_27" type="conventional"  from="start1" to="end1" depart="296.701811" />
    <trip id="start2Toend1_26" type="conventional"  from="start2" to="end1" depart="301.261767" />
    <trip id="start1Toend1_28" type="conventional"  from="start1" to="end1" depart="302.593720" />
    <trip id="start1Toend2_28" type="conventional"  from="start1" to="end2" depart="303.420645" />
    <trip id="start2Toend1_27" type="conventional"  from="start2" to="end1" depart="305.427057" />
    <trip id="start1Toend2_29" type="conventional"  from="start1" to="end2" depart="308.349398" />
    <trip id="start2Toend1_28" type="conventional"  from="start2" to="end1" depart="314.423907" />
    <trip id="start2Toend2_20" type="conventional"  from="start2" to="end2" depart="320.761427" />
    <trip id="start2Toend1_29" type="conventional"  from="start2" to="end1" depart="321.655382" />
    <trip id="start2Toend2_21" type="conventional"  from="start2" to="end2" depart="329.022265" />
    <trip id="start1Toend1_29" type="conventional"  from="start1" to="end1" depart="330.428101" />
    <trip id="start2Toend2_22" type="conventional"  from="start2" to="end2" depart="332.796286" />
    <trip id="start2Toend2_23" type="conventional"  from="start2" to="end2" depart="333.845384" />
    <trip id="start1Toend2_30" type="conventional"  from="start1" to="end2" depart="337.528234" />
    <trip id="start1Toend2_31" type="conventional"  from="start1" to="end2" depart="340.776599" />
    <trip id="start1Toend2_32" type="conventional"  from="start1" to="end2" depart="347.798326" />
    <trip id="start1Toend1_30" type="conventional"  from="start1" to="end1" depart="348.569762" />
    <trip id="start1Toend1_31" type="conventional"  from="start1" to="end1" depart="352.102811" />
    <trip id="start1Toend2_33" type="conventional"  from="start1" to="end2" depart="355.043349" />
    <trip id="start2Toend1_30" type="conventional"  from="start2" to="end1" depart="355.700513" />
    <trip id="start1Toend1_32" type="conventional"  from="start1" to="end1" depart="356.045711" />
    <trip id="start1Toend1_33" type="conventional"  from="start1" to="end1" depart="357.855818" />
    <trip id="start2Toend1_31" type="conventional"  from="start2" to="end1" depart="360.629980" />
    <trip id="start1Toend1_34" type="conventional"  from="start1" to="end1" depart="362.737226" />
    <trip id="start2Toend2_24" type="conventional"  from="start2" to="end2" depart="364.507553" />
    <trip id="start2Toend2_25" type="conventional"  from="start2" to="end2" depart="364.569393" />
    <trip id="start2Toend2_26" type="conventional"  from="start2" to="end2" depart="366.886159" />
    <trip id="start1Toend2_34" type="conventional"  from="start1" to="end2" depart="369.488346" />
    <trip id="start2Toend1_32" type="conventional"  from="start2" to="end1" depart="378.405431" />
    <trip id="start2Toend1_33" type="conventional"  from="start2" to="end1" depart="378.629028" />
    <trip id="start2Toend1_34" type="conventional"  from="start2" to="end1" depart="380.121012" />
    <trip id="start2Toend2_27" type="conventional"  from="start2" to="end2" depart="381.696959" />
    <trip id="start1Toend2_35" type="conventional"  from="start1" to="end2" depart="382.813250" />
    <trip id="start1Toend1_35" type="conventional"  from="start1" to="end1" depart="385.252690" />
    <trip id="start1Toend1_36" type="conventional"  from="start1" to="end1" depart="392.990724" />
    <trip id="start1Toend2_36" type="conventional"  from="start1" to="end2" depart="393.082843" />
    <trip id="start1Toend1_37" type="conventional"  from="start1" to="end1" depart="395.897721" />
    <trip id="start1Toend2_37" type="conventional"  from="start1" to="end2" depart="396.512817" />
    <trip id="start1Toend2_38" type="conventional"  from="start1" to="end2" depart="397.105464" />
    <trip id="start2Toend2_28" type="conventional"  from="start2" to="end2" depart="399.821389" />
    <trip id="start1Toend2_39" type="conventional"  from="start1" to="end2" depart="401.082271" />
    <trip id="start1Toend1_38" type="conventional"  from="start1" to="end1" depart="401.464271" />
    <trip id="start1Toend1_39" type="conventional"  from="start1" to="end1" depart="402.574349" />
    <trip id="start1Toend2_40" type="conventional"  from="start1" to="end2" depart="404.943704" />
    <trip id="start1Toend1_40" type="conventional"  from="start1" to="end1" depart="405.816247" />
    <trip id="start1Toend2_41" type="conventional"  from="start1" to="end2" depart="409.661467" />
    <trip id="start2Toend1_35" type="conventional"  from="start2" to="end1" depart="410.087153" />
    <trip id="start2Toend2_29" type="conventional"  from="start2" to="end2" depart="417.218166" />
    <trip id="start1Toend2_42" type="conventional"  from="start1" to="end2" depart="421.646235" />
    <trip id="start2Toend1_36" type="conventional"  from="start2" to="end1" depart="423.387927" />
    <trip id="start1Toend1_41" type="conventional"  from="start1" to="end1" depart="425.797062" />
    <trip id="start2Toend1_37" type="conventional"  from="start2" to="end1" depart="427.429990" />
    <trip id="start1Toend2_43" type="conventional"  from="start1" to="end2" depart="432.323619" />
    <trip id="start1Toend2_44" type="conventional"  from="start1" to="end2" depart="432.974903" />
    <trip id="start1Toend2_45" type="conventional"  from="start1" to="end2" depart="433.466321" />
    <trip id="start1Toend2_46" type="conventional"  from="start1" to="end2" depart="434.596690" />
    <trip id="start2Toend2_30" type="conventional"  from="start2" to="end2" depart="436.216823" />
    <trip id="start1Toend1_42" type="conventional"  from="start1" to="end1" depart="445.710956" />
    <trip id="start1Toend1_43" type="conventional"  from="start1" to="end1" depart="445.867018" />
    <trip id="start2Toend1_38" type="conventional"  from="start2" to="end1" depart="446.195011" />
    <trip id="start2Toend1_39" type="conventional"  from="start2" to="end1" depart="452.927466" />
    <trip id="start1Toend2_47" type="conventional"  from="start1" to="end2" depart="459.402952" />
    <trip id="start2Toend1_40" type="conventional"  from="start2" to="end1" depart="461.538882" />
    <trip id="start2Toend1_41" type="conventional"  from="start2" to="end1" depart="462.166948" />
    <trip id="start1Toend2_48" type="conventional"  from="start1" to="end2" depart="462.599357" />
    <trip id="start2Toend2_31" type="conventional"  from="start2" to="end2" depart="471.182148" />
    <trip id="start1Toend1_44" type="conventional"  from="start1" to="end1" depart="471.439223" />
    <trip id="start2Toend1_42" type="conventional"  from="start2" to="end1" depart="473.748754" />
    <trip id="start1Toend2_49" type="conventional"  from="start1" to="end2" depart="481.678704" />
    <trip id="start2Toend2_32" type="conventional"  from="start2" to="end2" depart="481.704653" />
    <trip id="start2Toend2_33" type="conventional"  from="start2" to="end2" depart="482.434379" />
    <trip id="start1Toend2_50" type="conventional"  from="start1" to="end2" depart="484.767190" />
    <trip id="start2Toend1_43" type="conventional"  from="start2" to="end1" depart="488.097397" />
    <trip id="start1Toend1_45" type="conventional"  from="start1" to="end1" depart="490.622802" />
    <trip id="start2Toend1_44" type="conventional"  from="start2" to="end1" depart="493.030122" />
    <trip id="start2Toend1_45" type="conventional"  from="start2" to="end1" depart="496.606785" />
    <trip id="start1Toend2_51" type="conventional"  from="start1" to="end2" depart="497.980944" />
    <trip id="start1Toend2_52" type="conventional"  from="start1" to="end2" depart="498.047350" />
    <trip id="start2Toend1_46" type="conventional"  from="start2" to="end1" depart="499.970912" />
    <trip id="start1Toend1_46" type="conventional"  from="start1" to="end1" depart="505.786532" />
    <trip id="start1Toend2_53" type="conventional"  from="start1" to="end2" depart="507.058720" />
    <trip id="start2Toend1_47" type="conventional"  from="start2" to="end1" depart="507.918571" />
    <trip id="start2Toend1_48" type="conventional"  from="start2" to="end1" depart="509.971341" />
    <trip id="start1Toend2_54" type="conventional"  from="start1" to="end2" depart="510.131952" />
    <trip id="start2Toend1_49" type="conventional"  from="start2" to="end1" depart="510.910904" />
    <trip id="start2Toend2_34" type="conventional"  from="start2" to="end2" depart="517.847152" />
    <trip id="start1Toend1_47" type="conventional"  from="start1" to="end1" depart="522.017706" />
    <trip id="start1Toend1_48" type="conventional"  from="start1" to="end1" depart="522.081995" />
    <trip id="start1Toend1_49" type="conventional"  from="start1" to="end1" depart="523.749592" />
    <trip id="start2Toend2_35" type="conventional"  from="start2" to="end2" depart="525.508610" />
    <trip id="start1Toend2_55" type="conventional"  from="start1" to="end2" depart="528.554934" />
    <trip id="start2Toend2_36" type="conventional"  from="start2" to="end2" depart="530.434417" />
    <trip id="start2Toend2_37" type="conventional"  from="start2" to="end2" depart="530.863000" />
    <trip id="start1Toend2_56" type="conventional"  from="start1" to="end2" depart="531.622691" />
    <trip id="start1Toend2_57" type="conventional"  from="start1" to="end2" depart="531.628710" />
    <trip id="start1Toend2_58" type="conventional"  from="start1" to="end2" depart="534.670183" />
    <trip id="start1Toend2_59" type="conventional"  from="start1" to="end2" depart="536.232477" />
    <trip id="start1Toend2_60" type="conventional"  from="start1" to="end2" depart="536.326541" />
    <trip id="start2Toend2_38" type="conventional"  from="start2" to="end2" depart="536.513458" />
    <trip id="start2Toend2_39" type="conventional"  from="start2" to="end2" depart="537.735673" />
    <trip id="start1Toend2_61" type="conventional"  from="start1" to="end2" depart="541.385930" />
    <trip id="start1Toend2_62" type="conventional"  from="start1" to="end2" depart="544.843006" />
    <trip id="start1Toend2_63" type="conventional"  from="start1" to="end2" depart="545.384993" />
    <trip id="start2Toend1_50" type="conventional"  from="start2" to="end1" depart="547.531919" />
    <trip id="start2Toend1_51" type="conventional"  from="start2" to="end1" depart="552.206883" />
    <trip id="start1Toend1_50" type="conventional"  from="start1" to="end1" depart="556.327129" />
    <trip id="start1Toend1_51" type="conventional"  from="start1" to="end1" depart="557.652260" />
    <trip id="start2Toend2_40" type="conventional"  from="start2" to="end2" depart="557.857562" />
    <trip id="start2Toend2_41" type="conventional"  from="start2" to="end2" depart="559.048813" />
    <trip id="start2Toend1_52" type="conventional"  from="start2" to="end1" depart="560.167815" />
    <trip id="start1Toend1_52" type="conventional"  from="start1" to="end1" depart="561.294699" />
    <trip id="start2Toend1_53" type="conventional"  from="start2" to="end1" depart="563.306832" />
    <trip id="start2Toend2_42" type="conventional"  from="start2" to="end2" depart="563.691476" />
    <trip id="start1Toend2_64" type="conventional"  from="start1" to="end2" depart="564.248129" />
    <trip id="start1Toend1_53" type="conventional"  from="start1" to="end1" depart="567.162971" />
    <trip id="start2Toend1_54" type="conventional"  from="start2" to="end1" depart="568.944195" />
    <trip id="start2Toend1_55" type="conventional"  from="start2" to="end1" depart="569.551257" />
    <trip id="start2Toend2_43" type="conventional"  from="start2" to="end2" depart="572.622469" />
    <trip id="start2Toend2_44" type="conventional"  from="start2" to="end2" depart="579.338463" />
    <trip id="start2Toend2_45" type="conventional"  from="start2" to="end2" depart="579.545516" />
    <trip id="start1Toend1_54" type="conventional"  from="start1" to="end1" depart="579.660803" />
    <trip id="start1Toend1_55" type="conventional"  from="start1" to="end1" depart="581.275694" />
    <trip id="start2Toend1_56" type="conventional"  from="start2" to="end1" depart="582.310761" />
    <trip id="start1Toend2_65" type="conventional"  from="start1" to="end2" depart="589.989108" />
    <trip id="start1Toend1_56" type="conventional"  from="start1" to="end1" depart="603.012236" />
    <trip id="start1Toend2_66" type="conventional"  from="start1" to="end2" depart="604.159296" />
    <trip id="start2Toend2_46" type="conventional"  from="start2" to="end2" depart="604.518271" />
    <trip id="start2Toend1_57" type="conventional"  from="start2" to="end1" depart="604.544242" />
    <trip id="start1Toend1_57" type="conventional"  from="start1" to="end1" depart="604.570155" />
    <trip id="start1Toend1_58" type="conventional"  from="start1" to="end1" depart="606.237088" />
    <trip id="start2Toend2_47" type="conventional"  from="start2" to="end2" depart="607.700906" />
    <trip id="start2Toend1_58" type="conventional"  from="start2" to="end1" depart="608.602222" />
    <trip id="start1Toend2_67" type="conventional"  from="start1" to="end2" depart="612.381954" />
    <trip id="start1Toend2_68" type="conventional"  from="start1" to="end2" depart="612.476459" />
    <trip id="start2Toend2_48" type="conventional"  from="start2" to="end2" depart="613.544171" />
    <trip id="start1Toend1_59" type="conventional"  from="start1" to="end1" depart="617.717361" />
    <trip id="start1Toend2_69" type="conventional"  from="start1" to="end2" depart="624.812900" />
    <trip id="start2Toend1_59" type="conventional"  from="start2" to="end1" depart="626.247015" />
    <trip id="start1Toend1_60" type="conventional"  from="start1" to="end1" depart="626.589948" />
    <trip id="start2Toend2_49" type="conventional"  from="start2" to="end2" depart="630.259077" />
    <trip id="start1Toend1_61" type="conventional"  from="start1" to="end1" depart="633.038930" />
    <trip id="start1Toend2_70" type="conventional"  from="start1" to="end2" depart="635.910255" />
    <trip id="start1Toend1_62" type="conventional"  from="start1" to="end1" depart="636.485755" />
    <trip id="start1Toend1_63" type="conventional"  from="start1" to="end1" depart="636.892926" />
    <trip id="start2Toend1_60" type="conventional"  from="start2" to="end1" depart="638.803641" />
    <trip id="start1Toend1_64" type="conventional"  from="start1" to="end1" depart="640.183796" />
    <trip id="start2Toend2_50" type="conventional"  from="start2" to="end2" depart="640.265935" />
    <trip id="start2Toend1_61" type="conventional"  from="start2" to="end1" depart="647.004664" />
    <trip id="start1Toend2_71" type="conventional"  from="start1" to="end2" depart="649.062530" />
    <trip id="start2Toend2_51" type="conventional"  from="start2" to="end2" depart="650.162997" />
    <trip id="start1Toend2_72" type="conventional"  from="start1" to="end2" depart="653.427011" />
    <trip id="start2Toend1_62" type="conventional"  from="start2" to="end1" depart="655.618982" />
    <trip id="start1Toend1_65" type="conventional"  from="start1" to="end1" depart="663.673944" />
    <trip id="start1Toend1_66" type="conventional"  from="start1" to="end1" depart="665.482642" />
    <trip id="start1Toend1_67" type="conventional"  from="start1" to="end1" depart="665.974544" />
    <trip id="start1Toend1_68" type="conventional"  from="start1" to="end1" depart="666.474631" />
    <trip id="start2Toend2_52" type="conventional"  from="start2" to="end2" depart="666.754288" />
    <trip id="start2Toend2_53" type="conventional"  from="start2" to="end2" depart="667.435087" />
    <trip id="start1Toend2_73" type="conventional"  from="start1" to="end2" depart="668.451042" />
    <trip id="start2Toend2_54" type="conventional"  from="start2" to="end2" depart="670.706025" />
    <trip id="start1Toend1_69" type="conventional"  from="start1" to="end1" depart="676.705684" />
    <trip id="start2Toend2_55" type="conventional"  from="start2" to="end2" depart="679.762000" />
    <trip id="start1Toend1_70" type="conventional"  from="start1" to="end1" depart="682.348854" />
    <trip id="start1Toend1_71" type="conventional"  from="start1" to="end1" depart="682.446028" />
    <trip id="start1Toend1_72" type="conventional"  from="start1" to="end1" depart="684.380611" />
    <trip id="start1Toend1_73" type="conventional"  from="start1" to="end1" depart="689.774090" />
    <trip id="start1Toend2_74" type="conventional"  from="start1" to="end2" depart="694.449977" />
    <trip id="start1Toend2_75" type="conventional"  from="start1" to="end2" depart="698.521802" />
    <trip id="start1Toend2_76" type="conventional"  from="start1" to="end2" depart="702.085569" />
    <trip id="start2Toend1_63" type="conventional"  from="start2" to="end1" depart="705.068976" />
    <trip id="start1Toend2_77" type="conventional"  from="start1" to="end2" depart="705.838496" />
    <trip id="start2Toend2_56" type="conventional"  from="start2" to="end2" depart="705.956394" />
    <trip id="start1Toend1_74" type="conventional"  from="start1" to="end1" depart="708.915263" />
    <trip id="start2Toend2_57" type="conventional"  from="start2" to="end2" depart="709.824946" />
    <trip id="start1Toend2_78" type="conventional"  from="start1" to="end2" depart="711.586168" />
    <trip id="start1Toend1_75" type="conventional"  from="start1" to="end1" depart="714.062197" />
    <trip id="start2Toend1_64" type="conventional"  from="start2" to="end1" depart="716.124404" />
    <trip id="start1Toend1_76" type="conventional"  from="start1" to="end1" depart="720.204246" />
    <trip id="start1Toend1_77" type="conventional"  from="start1" to="end1" depart="725.453176" />
    <trip id="start1Toend2_79" type="conventional"  from="start1" to="end2" depart="729.669691" />