<?xml version="1.0" encoding="UTF-8"?>

<routes>

	<route id="route0" edges="start1 end1" />
    <route id="route1" edges="start1 end2" />
    <route id="route2" edges="start2 end1" />
    <route id="route3" edges="start2 end2" />


    <vType id="conventional" vClass="passenger" tau="5.5" minGap="7.5" carFollowModel="IDM" maxSpeed="40.00"/>
    <vType id="conventional_human" vClass="passenger" tau="5.5" minGap="7.5" carFollowModel="IDM" maxSpeed="40.00" color="52,128,235"/>
    <!--vType id="conventional_human" vClass="passenger" tau="3.5" minGap="5.5" carFollowModel="IDM" maxSpeed="28.00" color="52,128,235"/-->
    <vType id="non_merging" vClass="passenger" tau="5.5" minGap="7.5" carFollowModel="IDM" maxSpeed="40.00"/>
    <vType id="merging" vClass="passenger" carFollowModel="IDM" emergencyDecel="4.5" length="5" tau="0.1" maxSpeed="40.00" color="1,1,0" accel="10.3" decel="1.7" sigma="0.0" minGap="2.0"/>
    <!--vType id="connected" vClass="passenger" tau="2.5" minGap="5.5" carFollowModel="IDM" maxSpeed="28.00" lcCooperative="0.0" color="1,1,0" lcStrategic="1.0" accel="3.0" decel="1.5" emergencyDecel="4.5" lcSpeedGain="0.3" sigma="0.0" lcKeepRight="0.3"-->
    <vType id="connected" vClass="passenger" tau="5.5" minGap="7.5" carFollowModel="IDM" maxSpeed="1.00" emergencyDecel="4.5"/>
    <vType id="routeByDistance" maxSpeed="1"/>
    <vType id="connected_pCatchupFollower" vClass="passenger" carFollowModel="IDM" emergencyDecel="4.5" length="5" tau="0.1" maxSpeed="40.00" color="1,1,0" accel="10.3" decel="1.7" sigma="0.0" minGap="2.0"/>
    <vType id="connected_pCatchup" vClass="passenger" tau="0.1" carFollowModel="IDM" emergencyDecel="4.5" maxSpeed="40.00" color="0,0.8,0.3" accel="10.3" decel="1.7" sigma="0.0" minGap="2.0"/>
    <vType id="connected_pFollower" vClass="passenger" tau="0.1" carFollowModel="IDM" maxSpeed="40.00" color="1,1,0" accel="10.3" decel="1.7" sigma="0.0"  minGap="2.0" emergencyDecel="4.5"/>
    <vType id="connected_pLeader" vClass="passenger" length="5" carFollowModel="IDM" maxSpeed="40.00" lcCooperative="0.0" color="1,1,0" lcStrategic="1.0" accel="13.0" decel="1.5" emergencyDecel="4.5" lcSpeedGain="0.3" sigma="0.0" lcKeepRight="0.3"/>

    
	
    <trip id="start1Toend1_0" type="conventional"  from="start1" to="end1" depart="0.000000" />
    <trip id="start2Toend1_0" type="conventional"  from="start2" to="end1" depart="0.000000" />
    <trip id="start2Toend1_1" type="conventional"  from="start2" to="end1" depart="6.719558" />
    <trip id="start1Toend2_0" type="conventional"  from="start1" to="end2" depart="10.000000" />
    <trip id="start2Toend2_0" type="conventional"  from="start2" to="end2" depart="10.000000" />
    <trip id="start2Toend1_2" type="conventional"  from="start2" to="end1" depart="10.529309" />
    <trip id="start1Toend1_1" type="conventional"  from="start1" to="end1" depart="15.256388" />
    <trip id="start2Toend2_1" type="conventional"  from="start2" to="end2" depart="18.763805" />
    <trip id="start1Toend2_1" type="conventional"  from="start1" to="end2" depart="23.740543" />
    <trip id="start2Toend1_3" type="conventional"  from="start2" to="end1" depart="23.875775" />
    <trip id="start1Toend2_2" type="conventional"  from="start1" to="end2" depart="24.470878" />
    <trip id="start1Toend1_2" type="conventional"  from="start1" to="end1" depart="29.493725" />
    <trip id="start1Toend2_3" type="conventional"  from="start1" to="end2" depart="32.725474" />
    <trip id="start2Toend2_2" type="conventional"  from="start2" to="end2" depart="38.045920" />
    <trip id="start2Toend1_4" type="conventional"  from="start2" to="end1" depart="38.079193" />
    <trip id="start1Toend2_4" type="conventional"  from="start1" to="end2" depart="46.188735" />
    <trip id="start1Toend2_5" type="conventional"  from="start1" to="end2" depart="47.295375" />
    <trip id="start1Toend1_3" type="conventional"  from="start1" to="end1" depart="52.105703" />
    <trip id="start1Toend1_4" type="conventional"  from="start1" to="end1" depart="52.362088" />
    <trip id="start1Toend1_5" type="conventional"  from="start1" to="end1" depart="76.010892" />
    <trip id="start1Toend1_6" type="conventional"  from="start1" to="end1" depart="76.661629" />
    <trip id="start2Toend2_3" type="conventional"  from="start2" to="end2" depart="85.657823" />
    <trip id="start1Toend1_7" type="conventional"  from="start1" to="end1" depart="86.221866" />
    <trip id="start2Toend2_4" type="conventional"  from="start2" to="end2" depart="90.572750" />
    <trip id="start2Toend2_5" type="conventional"  from="start2" to="end2" depart="99.957833" />
    <trip id="start1Toend1_8" type="conventional"  from="start1" to="end1" depart="100.763908" />
    <trip id="start1Toend2_6" type="conventional"  from="start1" to="end2" depart="101.939915" />
    <trip id="start1Toend2_7" type="conventional"  from="start1" to="end2" depart="108.267442" />
    <trip id="start1Toend2_8" type="conventional"  from="start1" to="end2" depart="111.646610" />
    <trip id="start2Toend1_5" type="conventional"  from="start2" to="end1" depart="118.708765" />
    <trip id="start1Toend2_9" type="conventional"  from="start1" to="end2" depart="120.687494" />
    <trip id="start2Toend2_6" type="conventional"  from="start2" to="end2" depart="121.096506" />
    <trip id="start2Toend2_7" type="conventional"  from="start2" to="end2" depart="124.028960" />
    <trip id="start2Toend1_6" type="conventional"  from="start2" to="end1" depart="125.937503" />
    <trip id="start1Toend2_10" type="conventional"  from="start1" to="end2" depart="130.997921" />
    <trip id="start1Toend1_9" type="conventional"  from="start1" to="end1" depart="134.894021" />
    <trip id="start1Toend2_11" type="conventional"  from="start1" to="end2" depart="134.967788" />
    <trip id="start2Toend2_8" type="conventional"  from="start2" to="end2" depart="136.939191" />
    <trip id="start2Toend1_7" type="conventional"  from="start2" to="end1" depart="143.624579" />
    <trip id="start1Toend2_12" type="conventional"  from="start1" to="end2" depart="144.886247" />
    <trip id="start1Toend1_10" type="conventional"  from="start1" to="end1" depart="148.267857" />
    <trip id="start1Toend2_13" type="conventional"  from="start1" to="end2" depart="154.682524" />
    <trip id="start2Toend2_9" type="conventional"  from="start2" to="end2" depart="155.876316" />
    <trip id="start2Toend1_8" type="conventional"  from="start2" to="end1" depart="160.329295" />
    <trip id="start1Toend2_14" type="conventional"  from="start1" to="end2" depart="163.190332" />
    <trip id="start2Toend1_9" type="conventional"  from="start2" to="end1" depart="169.998551" />
    <trip id="start2Toend2_10" type="conventional"  from="start2" to="end2" depart="174.339517" />
    <trip id="start1Toend1_11" type="conventional"  from="start1" to="end1" depart="174.469934" />
    <trip id="start1Toend2_15" type="conventional"  from="start1" to="end2" depart="180.009818" />
    <trip id="start1Toend1_12" type="conventional"  from="start1" to="end1" depart="181.635388" />
    <trip id="start1Toend1_13" type="conventional"  from="start1" to="end1" depart="186.992405" />
    <trip id="start1Toend1_14" type="conventional"  from="start1" to="end1" depart="187.325063" />
    <trip id="start1Toend1_15" type="conventional"  from="start1" to="end1" depart="190.158203" />
    <trip id="start2Toend1_10" type="conventional"  from="start2" to="end1" depart="195.969640" />
    <trip id="start1Toend1_16" type="conventional"  from="start1" to="end1" depart="196.960142" />
    <trip id="start1Toend2_16" type="conventional"  from="start1" to="end2" depart="197.615341" />
    <trip id="start2Toend1_11" type="conventional"  from="start2" to="end1" depart="201.967240" />
    <trip id="start1Toend2_17" type="conventional"  from="start1" to="end2" depart="207.640677" />
    <trip id="start1Toend1_17" type="conventional"  from="start1" to="end1" depart="209.881164" />
    <trip id="start2Toend1_12" type="conventional"  from="start2" to="end1" depart="216.768027" />
    <trip id="start2Toend2_11" type="conventional"  from="start2" to="end2" depart="216.919894" />
    <trip id="start2Toend1_13" type="conventional"  from="start2" to="end1" depart="219.252074" />
    <trip id="start1Toend2_18" type="conventional"  from="start1" to="end2" depart="219.602560" />
    <trip id="start1Toend1_18" type="conventional"  from="start1" to="end1" depart="222.952864" />
    <trip id="start2Toend1_14" type="conventional"  from="start2" to="end1" depart="224.736002" />
    <trip id="start1Toend2_19" type="conventional"  from="start1" to="end2" depart="227.211338" />
    <trip id="start2Toend2_12" type="conventional"  from="start2" to="end2" depart="240.044604" />
    <trip id="start1Toend2_20" type="conventional"  from="start1" to="end2" depart="241.674250" />
    <trip id="start2Toend2_13" type="conventional"  from="start2" to="end2" depart="248.673979" />
    <trip id="start1Toend1_19" type="conventional"  from="start1" to="end1" depart="251.577767" />
    <trip id="start1Toend1_20" type="conventional"  from="start1" to="end1" depart="253.069810" />
    <trip id="start1Toend2_21" type="conventional"  from="start1" to="end2" depart="253.369307" />
    <trip id="start1Toend2_22" type="conventional"  from="start1" to="end2" depart="254.633519" />
    <trip id="start2Toend1_15" type="conventional"  from="start2" to="end1" depart="259.881269" />
    <trip id="start1Toend1_21" type="conventional"  from="start1" to="end1" depart="265.662396" />
    <trip id="start2Toend2_14" type="conventional"  from="start2" to="end2" depart="269.330485" />
    <trip id="start1Toend2_23" type="conventional"  from="start1" to="end2" depart="269.647466" />
    <trip id="start1Toend2_24" type="conventional"  from="start1" to="end2" depart="292.901350" />
    <trip id="start2Toend2_15" type="conventional"  from="start2" to="end2" depart="299.547597" />
    <trip id="start1Toend1_22" type="conventional"  from="start1" to="end1" depart="301.371925" />
    <trip id="start1Toend2_25" type="conventional"  from="start1" to="end2" depart="301.947710" />
    <trip id="start1Toend2_26" type="conventional"  from="start1" to="end2" depart="302.972829" />
    <trip id="start1Toend2_27" type="conventional"  from="start1" to="end2" depart="305.863154" />
    <trip id="start1Toend2_28" type="conventional"  from="start1" to="end2" depart="307.162209" />
    <trip id="start1Toend1_23" type="conventional"  from="start1" to="end1" depart="312.857177" />
    <trip id="start1Toend2_29" type="conventional"  from="start1" to="end2" depart="314.471846" />
    <trip id="start1Toend2_30" type="conventional"  from="start1" to="end2" depart="316.290515" />
    <trip id="start1Toend2_31" type="conventional"  from="start1" to="end2" depart="323.155844" />
    <trip id="start2Toend2_16" type="conventional"  from="start2" to="end2" depart="333.223760" />
    <trip id="start1Toend1_24" type="conventional"  from="start1" to="end1" depart="333.394903" />
    <trip id="start2Toend2_17" type="conventional"  from="start2" to="end2" depart="340.763844" />
    <trip id="start1Toend1_25" type="conventional"  from="start1" to="end1" depart="341.213034" />
    <trip id="start1Toend1_26" type="conventional"  from="start1" to="end1" depart="342.656602" />
    <trip id="start2Toend2_18" type="conventional"  from="start2" to="end2" depart="343.626067" />
    <trip id="start1Toend2_32" type="conventional"  from="start1" to="end2" depart="344.725362" />
    <trip id="start1Toend2_33" type="conventional"  from="start1" to="end2" depart="352.200495" />
    <trip id="start2Toend1_16" type="conventional"  from="start2" to="end1" depart="356.838835" />
    <trip id="start2Toend2_19" type="conventional"  from="start2" to="end2" depart="359.448865" />
    <trip id="start2Toend2_20" type="conventional"  from="start2" to="end2" depart="360.109541" />
    <trip id="start1Toend1_27" type="conventional"  from="start1" to="end1" depart="361.386211" />
    <trip id="start2Toend1_17" type="conventional"  from="start2" to="end1" depart="366.596542" />
    <trip id="start1Toend2_34" type="conventional"  from="start1" to="end2" depart="368.360444" />
    <trip id="start2Toend2_21" type="conventional"  from="start2" to="end2" depart="368.792730" />
    <trip id="start2Toend1_18" type="conventional"  from="start2" to="end1" depart="370.817779" />
    <trip id="start2Toend2_22" type="conventional"  from="start2" to="end2" depart="382.480759" />
    <trip id="start2Toend1_19" type="conventional"  from="start2" to="end1" depart="389.070313" />
    <trip id="start2Toend2_23" type="conventional"  from="start2" to="end2" depart="393.749023" />
    <trip id="start1Toend1_28" type="conventional"  from="start1" to="end1" depart="395.775340" />
    <trip id="start1Toend1_29" type="conventional"  from="start1" to="end1" depart="401.100841" />
    <trip id="start1Toend1_30" type="conventional"  from="start1" to="end1" depart="414.169584" />
    <trip id="start1Toend2_35" type="conventional"  from="start1" to="end2" depart="414.749229" />
    <trip id="start1Toend2_36" type="conventional"  from="start1" to="end2" depart="417.491799" />
    <trip id="start1Toend1_31" type="conventional"  from="start1" to="end1" depart="418.133832" />
    <trip id="start1Toend2_37" type="conventional"  from="start1" to="end2" depart="432.281756" />
    <trip id="start2Toend2_24" type="conventional"  from="start2" to="end2" depart="435.898204" />
    <trip id="start2Toend1_20" type="conventional"  from="start2" to="end1" depart="436.865949" />
    <trip id="start2Toend1_21" type="conventional"  from="start2" to="end1" depart="438.296604" />
    <trip id="start2Toend2_25" type="conventional"  from="start2" to="end2" depart="442.000825" />
    <trip id="start2Toend1_22" type="conventional"  from="start2" to="end1" depart="444.621579" />
    <trip id="start2Toend2_26" type="conventional"  from="start2" to="end2" depart="450.105859" />
    <trip id="start1Toend1_32" type="conventional"  from="start1" to="end1" depart="455.801943" />
    <trip id="start1Toend2_38" type="conventional"  from="start1" to="end2" depart="464.126298" />
    <trip id="start2Toend2_27" type="conventional"  from="start2" to="end2" depart="464.442925" />
    <trip id="start1Toend2_39" type="conventional"  from="start1" to="end2" depart="467.134189" />
    <trip id="start1Toend1_33" type="conventional"  from="start1" to="end1" depart="469.251306" />
    <trip id="start1Toend1_34" type="conventional"  from="start1" to="end1" depart="472.841492" />
    <trip id="start1Toend2_40" type="conventional"  from="start1" to="end2" depart="475.219806" />
    <trip id="start1Toend2_41" type="conventional"  from="start1" to="end2" depart="479.158514" />
    <trip id="start2Toend2_28" type="conventional"  from="start2" to="end2" depart="484.083394" />
    <trip id="start1Toend1_35" type="conventional"  from="start1" to="end1" depart="489.814669" />
    <trip id="start2Toend2_29" type="conventional"  from="start2" to="end2" depart="499.037155" />
    <trip id="start1Toend2_42" type="conventional"  from="start1" to="end2" depart="504.640655" />
    <trip id="start1Toend1_36" type="conventional"  from="start1" to="end1" depart="504.982160" />
    <trip id="start1Toend1_37" type="conventional"  from="start1" to="end1" depart="510.217024" />
    <trip id="start2Toend2_30" type="conventional"  from="start2" to="end2" depart="510.728461" />
    <trip id="start1Toend1_38" type="conventional"  from="start1" to="end1" depart="514.715000" />
    <trip id="start1Toend1_39" type="conventional"  from="start1" to="end1" depart="522.797365" />
    <trip id="start1Toend2_43" type="conventional"  from="start1" to="end2" depart="530.846867" />
    <trip id="start1Toend2_44" type="conventional"  from="start1" to="end2" depart="534.385617" />
    <trip id="start2Toend2_31" type="conventional"  from="start2" to="end2" depart="534.641610" />
    <trip id="start2Toend1_23" type="conventional"  from="start2" to="end1" depart="538.227981" />
    <trip id="start2Toend2_32" type="conventional"  from="start2" to="end2" depart="546.053202" />
    <trip id="start1Toend1_40" type="conventional"  from="start1" to="end1" depart="547.288668" />
    <trip id="start2Toend2_33" type="conventional"  from="start2" to="end2" depart="547.895679" />
    <trip id="start1Toend2_45" type="conventional"  from="start1" to="end2" depart="548.753673" />
    <trip id="start2Toend2_34" type="conventional"  from="start2" to="end2" depart="549.953029" />
    <trip id="start2Toend2_35" type="conventional"  from="start2" to="end2" depart="552.650013" />
    <trip id="start2Toend2_36" type="conventional"  from="start2" to="end2" depart="553.540148" />
    <trip id="start2Toend2_37" type="conventional"  from="start2" to="end2" depart="559.095308" />
    <trip id="start2Toend2_38" type="conventional"  from="start2" to="end2" depart="559.108138" />
    <trip id="start2Toend1_24" type="conventional"  from="start2" to="end1" depart="561.069641" />
    <trip id="start2Toend1_25" type="conventional"  from="start2" to="end1" depart="561.182910" />
    <trip id="start2Toend2_39" type="conventional"  from="start2" to="end2" depart="566.982773" />
    <trip id="start1Toend2_46" type="conventional"  from="start1" to="end2" depart="569.878472" />
    <trip id="start2Toend1_26" type="conventional"  from="start2" to="end1" depart="569.935360" />
    <trip id="start1Toend1_41" type="conventional"  from="start1" to="end1" depart="573.702459" />
    <trip id="start2Toend1_27" type="conventional"  from="start2" to="end1" depart="580.851612" />
    <trip id="start1Toend1_42" type="conventional"  from="start1" to="end1" depart="591.778633" />
    <trip id="start2Toend2_40" type="conventional"  from="start2" to="end2" depart="598.768178" />
    <trip id="start1Toend1_43" type="conventional"  from="start1" to="end1" depart="602.083909" />
    <trip id="start2Toend1_28" type="conventional"  from="start2" to="end1" depart="605.911130" />
    <trip id="start2Toend1_29" type="conventional"  from="start2" to="end1" depart="606.874552" />
    <trip id="start2Toend2_41" type="conventional"  from="start2" to="end2" depart="612.426980" />
    <trip id="start2Toend1_30" type="conventional"  from="start2" to="end1" depart="615.475862" />
    <trip id="start2Toend2_42" type="conventional"  from="start2" to="end2" depart="621.850778" />
    <trip id="start2Toend2_43" type="conventional"  from="start2" to="end2" depart="629.100071" />
    <trip id="start2Toend1_31" type="conventional"  from="start2" to="end1" depart="632.113709" />
    <trip id="start2Toend1_32" type="conventional"  from="start2" to="end1" depart="632.781559" />
    <trip id="start1Toend1_44" type="conventional"  from="start1" to="end1" depart="633.619601" />
    <trip id="start1Toend2_47" type="conventional"  from="start1" to="end2" depart="637.233025" />
    <trip id="start1Toend1_45" type="conventional"  from="start1" to="end1" depart="638.217541" />
    <trip id="start1Toend2_48" type="conventional"  from="start1" to="end2" depart="642.192031" />
    <trip id="start1Toend2_49" type="conventional"  from="start1" to="end2" depart="649.763488" />
    <trip id="start2Toend2_44" type="conventional"  from="start2" to="end2" depart="650.841607" />
    <trip id="start1Toend1_46" type="conventional"  from="start1" to="end1" depart="655.171535" />
    <trip id="start1Toend2_50" type="conventional"  from="start1" to="end2" depart="660.913022" />
    <trip id="start2Toend2_45" type="conventional"  from="start2" to="end2" depart="691.278216" />
    <trip id="start2Toend1_33" type="conventional"  from="start2" to="end1" depart="693.656784" />
    <trip id="start2Toend2_46" type="conventional"  from="start2" to="end2" depart="698.694540" />
    <trip id="start2Toend2_47" type="conventional"  from="start2" to="end2" depart="706.715620" />
    <trip id="start1Toend2_51" type="conventional"  from="start1" to="end2" depart="708.450643" />
    <trip id="start1Toend1_47" type="conventional"  from="start1" to="end1" depart="709.490405" />
    <trip id="start1Toend1_48" type="conventional"  from="start1" to="end1" depart="715.470439" />
    <trip id="start1Toend2_52" type="conventional"  from="start1" to="end2" depart="718.642517" />
    <trip id="start1Toend2_53" type="conventional"  from="start1" to="end2" depart="727.811732" />
    <trip id="start1Toend2_54" type="conventional"  from="start1" to="end2" depart="734.137710" />
    <trip id="start2Toend1_34" type="conventional"  from="start2" to="end1" depart="734.644211" />
    <trip id="start1Toend2_55" type="conventional"  from="start1" to="end2" depart="739.620493" />
    <trip id="start2Toend1_35" type="conventional"  from="start2" to="end1" depart="740.347692" />
    <trip id="start2Toend1_36" type="conventional"  from="start2" to="end1" depart="741.036127" />
    <trip id="start1Toend1_49" type="conventional"  from="start1" to="end1" depart="742.641816" />
    <trip id="start2Toend2_48" type="conventional"  from="start2" to="end2" depart="744.279948" />
    <trip id="start2Toend1_37" type="conventional"  from="start2" to="end1" depart="750.048662" />
    <trip id="start2Toend2_49" type="conventional"  from="start2" to="end2" depart="751.870214" />
    <trip id="start1Toend1_50" type="conventional"  from="start1" to="end1" depart="751.977565" />
    <trip id="start2Toend2_50" type="conventional"  from="start2" to="end2" depart="758.350290" />
    <trip id="start1Toend1_51" type="conventional"  from="start1" to="end1" depart="760.312729" />
    <trip id="start2Toend1_38" type="conventional"  from="start2" to="end1" depart="762.655206" />
    <trip id="start1Toend1_52" type="conventional"  from="start1" to="end1" depart="765.742993" />
    <trip id="start1Toend1_53" type="conventional"  from="start1" to="end1" depart="767.396420" />
    <trip id="start1Toend1_54" type="conventional"  from="start1" to="end1" depart="768.541377" />
    <trip id="start1Toend1_55" type="conventional"  from="start1" to="end1" depart="774.057192" />
    <trip id="start1Toend2_56" type="conventional"  from="start1" to="end2" depart="774.748456" />
    <trip id="start1Toend1_56" type="conventional"  from="start1" to="end1" depart="779.886369" />
    <trip id="start1Toend2_57" type="conventional"  from="start1" to="end2" depart="781.607764" />
    <trip id="start2Toend2_51" type="conventional"  from="start2" to="end2" depart="786.909968" />
    <trip id="start2Toend1_39" type="conventional"  from="start2" to="end1" depart="796.081598" />
    <trip id="start1Toend2_58" type="conventional"  from="start1" to="end2" depart="797.527113" />
    <trip id="start1Toend1_57" type="conventional"  from="start1" to="end1" depart="801.122299" />
    <trip id="start1Toend2_59" type="conventional"  from="start1" to="end2" depart="804.614149" />
    <trip id="start2Toend2_52" type="conventional"  from="start2" to="end2" depart="806.658281" />
    <trip id="start2Toend2_53" type="conventional"  from="start2" to="end2" depart="807.480493" />
    <trip id="start2Toend1_40" type="conventional"  from="start2" to="end1" depart="817.309562" />
    <trip id="start2Toend2_54" type="conventional"  from="start2" to="end2" depart="819.079867" />
    <trip id="start2Toend2_55" type="conventional"  from="start2" to="end2" depart="832.244348" />
    <trip id="start1Toend2_60" type="conventional"  from="start1" to="end2" depart="837.752790" />
    <trip id="start1Toend2_61" type="conventional"  from="start1" to="end2" depart="847.630455" />
    <trip id="start2Toend2_56" type="conventional"  from="start2" to="end2" depart="847.631301" />
    <trip id="start1Toend2_62" type="conventional"  from="start1" to="end2" depart="849.982772" />
    <trip id="start2Toend2_57" type="conventional"  from="start2" to="end2" depart="850.381761" />
    <trip id="start1Toend1_58" type="conventional"  from="start1" to="end1" depart="858.097448" />
    <trip id="start1Toend2_63" type="conventional"  from="start1" to="end2" depart="861.685609" />
    <trip id="start2Toend2_58" type="conventional"  from="start2" to="end2" depart="866.964669" />
    <trip id="start2Toend2_59" type="conventional"  from="start2" to="end2" depart="868.471477" />
    <trip id="start2Toend1_41" type="conventional"  from="start2" to="end1" depart="876.918830" />
    <trip id="start2Toend2_60" type="conventional"  from="start2" to="end2" depart="879.874089" />
    <trip id="start1Toend2_64" type="conventional"  from="start1" to="end2" depart="880.706033" />
    <trip id="start1Toend2_65" type="conventional"  from="start1" to="end2" depart="889.620103" />
    <trip id="start2Toend2_61" type="conventional"  from="start2" to="end2" depart="894.008996" />
    <trip id="start2Toend2_62" type="conventional"  from="start2" to="end2" depart="895.288927" />
    <trip id="start2Toend2_63" type="conventional"  from="start2" to="end2" depart="896.358770" />
    <trip id="start1Toend2_66" type="conventional"  from="start1" to="end2" depart="897.996209" />
    <trip id="start2Toend1_42" type="conventional"  from="start2" to="end1" depart="899.780038" />
    <trip id="start1Toend1_59" type="conventional"  from="start1" to="end1" depart="899.957913" />
    <trip id="start1Toend1_60" type="conventional"  from="start1" to="end1" depart="913.793298" />
    <trip id="start2Toend2_64" type="conventional"  from="start2" to="end2" depart="916.709817" />
    <trip id="start2Toend2_65" type="conventional"  from="start2" to="end2" depart="919.106616" />
    <trip id="start1Toend1_61" type="conventional"  from="start1" to="end1" depart="921.972878" />
    <trip id="start1Toend1_62" type="conventional"  from="start1" to="end1" depart="939.075874" />
    <trip id="start1Toend1_63" type="conventional"  from="start1" to="end1" depart="945.111324" />
    <trip id="start2Toend1_43" type="conventional"  from="start2" to="end1" depart="946.122755" />
    <trip id="start2Toend1_44" type="conventional"  from="start2" to="end1" depart="946.337904" />
    <trip id="start2Toend2_66" type="conventional"  from="start2" to="end2" depart="946.619956" />
    <trip id="start1Toend1_64" type="conventional"  from="start1" to="end1" depart="947.527288" />
    <trip id="start2Toend1_45" type="conventional"  from="start2" to="end1" depart="953.026172" />
    <trip id="start2Toend1_46" type="conventional"  from="start2" to="end1" depart="959.236704" />
    <trip id="start2Toend1_47" type="conventional"  from="start2" to="end1" depart="965.297099" />
    <trip id="start2Toend2_67" type="conventional"  from="start2" to="end2" depart="966.912369" />
    <trip id="start1Toend2_67" type="conventional"  from="start1" to="end2" depart="968.689230" />
    <trip id="start1Toend1_65" type="conventional"  from="start1" to="end1" depart="975.485945" />
    <trip id="start2Toend2_68" type="conventional"  from="start2" to="end2" depart="979.086073" />
    <trip id="start2Toend1_48" type="conventional"  from="start2" to="end1" depart="980.191448" />
    <trip id="start1Toend2_68" type="conventional"  from="start1" to="end2" depart="989.948381" />
    <trip id="start2Toend1_49" type="conventional"  from="start2" to="end1" depart="992.026592" />
    <trip id="start2Toend2_69" type="conventional"  from="start2" to="end2" depart="994.127742" />
    <trip id="start2Toend2_70" type="conventional"  from="start2" to="end2" depart="998.564504" />
    <trip id="start1Toend1_66" type="conventional"  from="start1" to="end1" depart="1009.068741" />
    <trip id="start1Toend1_67" type="conventional"  from="start1" to="end1" depart="1021.807618" />
    <trip id="start2Toend2_71" type="conventional"  from="start2" to="end2" depart="1022.436540" />
    <trip id="start1Toend2_69" type="conventional"  from="start1" to="end2" depart="1023.349083" />
    <trip id="start2Toend1_50" type="conventional"  from="start2" to="end1" depart="1023.985666" />
    <trip id="start2Toend2_72" type="conventional"  from="start2" to="end2" depart="1025.169685" />
    <trip id="start1Toend1_68" type="conventional"  from="start1" to="end1" depart="1031.013885" />
    <trip id="start1Toend2_70" type="conventional"  from="start1" to="end2" depart="1037.033226" />
    <trip id="start1Toend2_71" type="conventional"  from="start1" to="end2" depart="1038.917547" />
    <trip id="start1Toend2_72" type="conventional"  from="start1" to="end2" depart="1040.390237" />
    <trip id="start1Toend2_73" type="conventional"  from="start1" to="end2" depart="1048.542041" />
    <trip id="start1Toend2_74" type="conventional"  from="start1" to="end2" depart="1048.693545" />
    <trip id="start1Toend1_69" type="conventional"  from="start1" to="end1" depart="1049.323199" />
    <trip id="start2Toend1_51" type="conventional"  from="start2" to="end1" depart="1056.841516" />
    <trip id="start1Toend2_75" type="conventional"  from="start1" to="end2" depart="1060.073369" />
    <trip id="start2Toend2_73" type="conventional"  from="start2" to="end2" depart="1068.421224" />
    <trip id="start2Toend1_52" type="conventional"  from="start2" to="end1" depart="1085.252314" />
    <trip id="start2Toend1_53" type="conventional"  from="start2" to="end1" depart="1091.893857" />
    <trip id="start2Toend1_54" type="conventional"  from="start2" to="end1" depart="1094.123177" />
    <trip id="start1Toend1_70" type="conventional"  from="start1" to="end1" depart="1116.797452" />
    <trip id="start2Toend2_74" type="conventional"  from="start2" to="end2" depart="1117.150843" />
    <trip id="start2Toend1_55" type="conventional"  from="start2" to="end1" depart="1119.639300" />
    <trip id="start1Toend2_76" type="conventional"  from="start1" to="end2" depart="1119.762923" />
    <trip id="start1Toend1_71" type="conventional"  from="start1" to="end1" depart="1126.837912" />
    <trip id="start1Toend2_77" type="conventional"  from="start1" to="end2" depart="1133.426651" />