<?xml version="1.0" encoding="UTF-8"?>

<routes>

	<route id="route0" edges="start1 end1" />
    <route id="route1" edges="start1 end2" />
    <route id="route2" edges="start2 end1" />
    <route id="route3" edges="start2 end2" />


    <vType id="conventional" vClass="passenger" tau="5.5" minGap="7.5" carFollowModel="IDM" maxSpeed="40.00"/>
    <vType id="conventional_human" vClass="passenger" tau="5.5" minGap="7.5" carFollowModel="IDM" maxSpeed="40.00" color="52,128,235"/>
    <!--vType id="conventional_human" vClass="passenger" tau="3.5" minGap="5.5" carFollowModel="IDM" maxSpeed="28.00" color="52,128,235"/-->
    <vType id="non_merging" vClass="passenger" tau="5.5" minGap="7.5" carFollowModel="IDM" maxSpeed="40.00"/>
    <vType id="merging" vClass="passenger" carFollowModel="IDM" emergencyDecel="4.5" length="5" tau="0.1" maxSpeed="40.00" color="1,1,0" accel="10.3" decel="1.7" sigma="0.0" minGap="2.0"/>
    <!--vType id="connected" vClass="passenger" tau="2.5" minGap="5.5" carFollowModel="IDM" maxSpeed="28.00" lcCooperative="0.0" color="1,1,0" lcStrategic="1.0" accel="3.0" decel="1.5" emergencyDecel="4.5" lcSpeedGain="0.3" sigma="0.0" lcKeepRight="0.3"-->
    <vType id="connected" vClass="passenger" tau="5.5" minGap="7.5" carFollowModel="IDM" maxSpeed="1.00" emergencyDecel="4.5"/>
    <vType id="routeByDistance" maxSpeed="1"/>
    <vType id="connected_pCatchupFollower" vClass="passenger" carFollowModel="IDM" emergencyDecel="4.5" length="5" tau="0.1" maxSpeed="40.00" color="1,1,0" accel="10.3" decel="1.7" sigma="0.0" minGap="2.0"/>
    <vType id="connected_pCatchup" vClass="passenger" tau="0.1" carFollowModel="IDM" emergencyDecel="4.5" maxSpeed="40.00" color="0,0.8,0.3" accel="10.3" decel="1.7" sigma="0.0" minGap="2.0"/>
    <vType id="connected_pFollower" vClass="passenger" tau="0.1" carFollowModel="IDM" maxSpeed="40.00" color="1,1,0" accel="10.3" decel="1.7" sigma="0.0"  minGap="2.0" emergencyDecel="4.5"/>
    <vType id="connected_pLeader" vClass="passenger" length="5" carFollowModel="IDM" maxSpeed="40.00" lcCooperative="0.0" color="1,1,0" lcStrategic="1.0" accel="13.0" decel="1.5" emergencyDecel="4.5" lcSpeedGain="0.3" sigma="0.0" lcKeepRight="0.3"/>

    
	
    <trip id="start1Toend1_0" type="conventional"  from="start1" to="end1" depart="0.000000" />
    <trip id="start2Toend1_0" type="conventional"  from="start2" to="end1" depart="0.000000" />
    <trip id="start2Toend1_1" type="conventional"  from="start2" to="end1" depart="0.325175" />
    <trip id="start2Toend1_2" type="conventional"  from="start2" to="end1" depart="3.084685" />
    <trip id="start2Toend1_3" type="conventional"  from="start2" to="end1" depart="3.433846" />
    <trip id="start1Toend1_1" type="conventional"  from="start1" to="end1" depart="4.476228" />
    <trip id="start1Toend1_2" type="conventional"  from="start1" to="end1" depart="6.321918" />
    <trip id="start1Toend1_3" type="conventional"  from="start1" to="end1" depart="8.229205" />
    <trip id="start1Toend2_0" type="conventional"  from="start1" to="end2" depart="10.000000" />
    <trip id="start2Toend2_0" type="conventional"  from="start2" to="end2" depart="10.000000" />
    <trip id="start1Toend2_1" type="conventional"  from="start1" to="end2" depart="11.113040" />
    <trip id="start1Toend1_4" type="conventional"  from="start1" to="end1" depart="11.137624" />
    <trip id="start1Toend2_2" type="conventional"  from="start1" to="end2" depart="13.411607" />
    <trip id="start1Toend1_5" type="conventional"  from="start1" to="end1" depart="14.189785" />
    <trip id="start2Toend2_1" type="conventional"  from="start2" to="end2" depart="15.280971" />
    <trip id="start1Toend2_3" type="conventional"  from="start1" to="end2" depart="16.919225" />
    <trip id="start1Toend2_4" type="conventional"  from="start1" to="end2" depart="17.571168" />
    <trip id="start1Toend1_6" type="conventional"  from="start1" to="end1" depart="18.008777" />
    <trip id="start2Toend2_2" type="conventional"  from="start2" to="end2" depart="18.057311" />
    <trip id="start2Toend2_3" type="conventional"  from="start2" to="end2" depart="19.014859" />
    <trip id="start2Toend2_4" type="conventional"  from="start2" to="end2" depart="21.416689" />
    <trip id="start1Toend1_7" type="conventional"  from="start1" to="end1" depart="21.815953" />
    <trip id="start1Toend2_5" type="conventional"  from="start1" to="end2" depart="22.039127" />
    <trip id="start1Toend1_8" type="conventional"  from="start1" to="end1" depart="25.363265" />
    <trip id="start2Toend1_4" type="conventional"  from="start2" to="end1" depart="25.541332" />
    <trip id="start1Toend2_6" type="conventional"  from="start1" to="end2" depart="25.809666" />
    <trip id="start2Toend2_5" type="conventional"  from="start2" to="end2" depart="28.633257" />
    <trip id="start2Toend2_6" type="conventional"  from="start2" to="end2" depart="29.055807" />
    <trip id="start2Toend1_5" type="conventional"  from="start2" to="end1" depart="29.765558" />
    <trip id="start1Toend1_9" type="conventional"  from="start1" to="end1" depart="31.282201" />
    <trip id="start2Toend1_6" type="conventional"  from="start2" to="end1" depart="31.761195" />
    <trip id="start2Toend1_7" type="conventional"  from="start2" to="end1" depart="33.240638" />
    <trip id="start2Toend1_8" type="conventional"  from="start2" to="end1" depart="33.543106" />
    <trip id="start1Toend1_10" type="conventional"  from="start1" to="end1" depart="34.079566" />
    <trip id="start2Toend1_9" type="conventional"  from="start2" to="end1" depart="35.174135" />
    <trip id="start1Toend1_11" type="conventional"  from="start1" to="end1" depart="36.984558" />
    <trip id="start1Toend1_12" type="conventional"  from="start1" to="end1" depart="39.124785" />
    <trip id="start1Toend2_7" type="conventional"  from="start1" to="end2" depart="39.363530" />
    <trip id="start1Toend1_13" type="conventional"  from="start1" to="end1" depart="40.123835" />
    <trip id="start1Toend1_14" type="conventional"  from="start1" to="end1" depart="45.698867" />
    <trip id="start2Toend2_7" type="conventional"  from="start2" to="end2" depart="46.611902" />
    <trip id="start1Toend1_15" type="conventional"  from="start1" to="end1" depart="47.663086" />
    <trip id="start2Toend2_8" type="conventional"  from="start2" to="end2" depart="47.844367" />
    <trip id="start2Toend2_9" type="conventional"  from="start2" to="end2" depart="48.434882" />
    <trip id="start1Toend2_8" type="conventional"  from="start1" to="end2" depart="48.462712" />
    <trip id="start1Toend1_16" type="conventional"  from="start1" to="end1" depart="48.606610" />
    <trip id="start1Toend1_17" type="conventional"  from="start1" to="end1" depart="50.321951" />
    <trip id="start2Toend1_10" type="conventional"  from="start2" to="end1" depart="53.124863" />
    <trip id="start2Toend2_10" type="conventional"  from="start2" to="end2" depart="53.463268" />
    <trip id="start2Toend2_11" type="conventional"  from="start2" to="end2" depart="54.050140" />
    <trip id="start1Toend2_9" type="conventional"  from="start1" to="end2" depart="57.629365" />
    <trip id="start1Toend2_10" type="conventional"  from="start1" to="end2" depart="59.893723" />
    <trip id="start1Toend2_11" type="conventional"  from="start1" to="end2" depart="62.349132" />
    <trip id="start2Toend1_11" type="conventional"  from="start2" to="end1" depart="63.932113" />
    <trip id="start2Toend2_12" type="conventional"  from="start2" to="end2" depart="64.471648" />
    <trip id="start2Toend2_13" type="conventional"  from="start2" to="end2" depart="64.957702" />
    <trip id="start2Toend2_14" type="conventional"  from="start2" to="end2" depart="67.868745" />
    <trip id="start2Toend2_15" type="conventional"  from="start2" to="end2" depart="68.129484" />
    <trip id="start2Toend2_16" type="conventional"  from="start2" to="end2" depart="68.468072" />
    <trip id="start2Toend1_12" type="conventional"  from="start2" to="end1" depart="68.844049" />
    <trip id="start2Toend1_13" type="conventional"  from="start2" to="end1" depart="69.051170" />
    <trip id="start2Toend1_14" type="conventional"  from="start2" to="end1" depart="69.943657" />
    <trip id="start2Toend1_15" type="conventional"  from="start2" to="end1" depart="70.414187" />
    <trip id="start2Toend2_17" type="conventional"  from="start2" to="end2" depart="70.561278" />
    <trip id="start2Toend1_16" type="conventional"  from="start2" to="end1" depart="72.603579" />
    <trip id="start1Toend2_12" type="conventional"  from="start1" to="end2" depart="73.809105" />
    <trip id="start2Toend2_18" type="conventional"  from="start2" to="end2" depart="74.197802" />
    <trip id="start2Toend1_17" type="conventional"  from="start2" to="end1" depart="76.297689" />
    <trip id="start2Toend1_18" type="conventional"  from="start2" to="end1" depart="81.123257" />
    <trip id="start2Toend2_19" type="conventional"  from="start2" to="end2" depart="84.151225" />
    <trip id="start2Toend1_19" type="conventional"  from="start2" to="end1" depart="85.022595" />
    <trip id="start1Toend1_18" type="conventional"  from="start1" to="end1" depart="85.180870" />
    <trip id="start1Toend1_19" type="conventional"  from="start1" to="end1" depart="85.842049" />
    <trip id="start2Toend1_20" type="conventional"  from="start2" to="end1" depart="87.467169" />
    <trip id="start1Toend1_20" type="conventional"  from="start1" to="end1" depart="88.057716" />
    <trip id="start1Toend1_21" type="conventional"  from="start1" to="end1" depart="89.612828" />
    <trip id="start2Toend2_20" type="conventional"  from="start2" to="end2" depart="90.170891" />
    <trip id="start2Toend2_21" type="conventional"  from="start2" to="end2" depart="91.082525" />
    <trip id="start1Toend2_13" type="conventional"  from="start1" to="end2" depart="91.094034" />
    <trip id="start1Toend2_14" type="conventional"  from="start1" to="end2" depart="93.284962" />
    <trip id="start1Toend2_15" type="conventional"  from="start1" to="end2" depart="93.581484" />
    <trip id="start2Toend1_21" type="conventional"  from="start2" to="end1" depart="93.804551" />
    <trip id="start2Toend2_22" type="conventional"  from="start2" to="end2" depart="93.975332" />
    <trip id="start2Toend1_22" type="conventional"  from="start2" to="end1" depart="97.923273" />
    <trip id="start1Toend1_22" type="conventional"  from="start1" to="end1" depart="98.172487" />
    <trip id="start1Toend2_16" type="conventional"  from="start1" to="end2" depart="98.197844" />
    <trip id="start1Toend2_17" type="conventional"  from="start1" to="end2" depart="100.617140" />
    <trip id="start2Toend2_23" type="conventional"  from="start2" to="end2" depart="100.902052" />
    <trip id="start2Toend1_23" type="conventional"  from="start2" to="end1" depart="104.265897" />
    <trip id="start2Toend1_24" type="conventional"  from="start2" to="end1" depart="104.630975" />
    <trip id="start1Toend1_23" type="conventional"  from="start1" to="end1" depart="104.730268" />
    <trip id="start1Toend1_24" type="conventional"  from="start1" to="end1" depart="105.052673" />
    <trip id="start2Toend2_24" type="conventional"  from="start2" to="end2" depart="106.296265" />
    <trip id="start1Toend2_18" type="conventional"  from="start1" to="end2" depart="108.720972" />
    <trip id="start1Toend2_19" type="conventional"  from="start1" to="end2" depart="110.221699" />
    <trip id="start2Toend1_25" type="conventional"  from="start2" to="end1" depart="111.044492" />
    <trip id="start2Toend2_25" type="conventional"  from="start2" to="end2" depart="111.463102" />
    <trip id="start2Toend1_26" type="conventional"  from="start2" to="end1" depart="111.769322" />
    <trip id="start1Toend2_20" type="conventional"  from="start1" to="end2" depart="113.549189" />
    <trip id="start1Toend1_25" type="conventional"  from="start1" to="end1" depart="113.723930" />
    <trip id="start1Toend1_26" type="conventional"  from="start1" to="end1" depart="113.772591" />
    <trip id="start2Toend2_26" type="conventional"  from="start2" to="end2" depart="114.843262" />
    <trip id="start2Toend1_27" type="conventional"  from="start2" to="end1" depart="116.538459" />
    <trip id="start2Toend2_27" type="conventional"  from="start2" to="end2" depart="117.835993" />
    <trip id="start2Toend1_28" type="conventional"  from="start2" to="end1" depart="118.214459" />
    <trip id="start2Toend2_28" type="conventional"  from="start2" to="end2" depart="118.698645" />
    <trip id="start2Toend2_29" type="conventional"  from="start2" to="end2" depart="118.729064" />
    <trip id="start1Toend1_27" type="conventional"  from="start1" to="end1" depart="118.778588" />
    <trip id="start1Toend1_28" type="conventional"  from="start1" to="end1" depart="120.658180" />
    <trip id="start2Toend1_29" type="conventional"  from="start2" to="end1" depart="121.974238" />
    <trip id="start1Toend1_29" type="conventional"  from="start1" to="end1" depart="123.425918" />
    <trip id="start2Toend2_30" type="conventional"  from="start2" to="end2" depart="124.854302" />
    <trip id="start2Toend1_30" type="conventional"  from="start2" to="end1" depart="125.086079" />
    <trip id="start1Toend1_30" type="conventional"  from="start1" to="end1" depart="126.523466" />
    <trip id="start1Toend1_31" type="conventional"  from="start1" to="end1" depart="127.432453" />
    <trip id="start2Toend2_31" type="conventional"  from="start2" to="end2" depart="128.879318" />
    <trip id="start1Toend2_21" type="conventional"  from="start1" to="end2" depart="131.529914" />
    <trip id="start1Toend2_22" type="conventional"  from="start1" to="end2" depart="132.263147" />
    <trip id="start2Toend2_32" type="conventional"  from="start2" to="end2" depart="132.450538" />
    <trip id="start1Toend2_23" type="conventional"  from="start1" to="end2" depart="133.889000" />
    <trip id="start1Toend1_32" type="conventional"  from="start1" to="end1" depart="134.204788" />
    <trip id="start1Toend2_24" type="conventional"  from="start1" to="end2" depart="134.535341" />
    <trip id="start1Toend1_33" type="conventional"  from="start1" to="end1" depart="136.742104" />
    <trip id="start1Toend2_25" type="conventional"  from="start1" to="end2" depart="138.555578" />
    <trip id="start2Toend2_33" type="conventional"  from="start2" to="end2" depart="140.786843" />
    <trip id="start1Toend2_26" type="conventional"  from="start1" to="end2" depart="142.235550" />
    <trip id="start2Toend2_34" type="conventional"  from="start2" to="end2" depart="142.568872" />
    <trip id="start1Toend2_27" type="conventional"  from="start1" to="end2" depart="142.913093" />
    <trip id="start2Toend2_35" type="conventional"  from="start2" to="end2" depart="143.138461" />
    <trip id="start2Toend2_36" type="conventional"  from="start2" to="end2" depart="143.615434" />
    <trip id="start2Toend2_37" type="conventional"  from="start2" to="end2" depart="144.436905" />
    <trip id="start1Toend2_28" type="conventional"  from="start1" to="end2" depart="144.566743" />
    <trip id="start2Toend1_31" type="conventional"  from="start2" to="end1" depart="146.220315" />
    <trip id="start2Toend1_32" type="conventional"  from="start2" to="end1" depart="147.035154" />
    <trip id="start1Toend2_29" type="conventional"  from="start1" to="end2" depart="147.505007" />
    <trip id="start2Toend2_38" type="conventional"  from="start2" to="end2" depart="149.389752" />
    <trip id="start2Toend2_39" type="conventional"  from="start2" to="end2" depart="150.026670" />
    <trip id="start2Toend2_40" type="conventional"  from="start2" to="end2" depart="158.290981" />
    <trip id="start2Toend1_33" type="conventional"  from="start2" to="end1" depart="158.730478" />
    <trip id="start1Toend2_30" type="conventional"  from="start1" to="end2" depart="162.762227" />
    <trip id="start1Toend1_34" type="conventional"  from="start1" to="end1" depart="163.154071" />
    <trip id="start1Toend1_35" type="conventional"  from="start1" to="end1" depart="163.517067" />
    <trip id="start2Toend2_41" type="conventional"  from="start2" to="end2" depart="163.947778" />
    <trip id="start1Toend2_31" type="conventional"  from="start1" to="end2" depart="167.290557" />
    <trip id="start2Toend1_34" type="conventional"  from="start2" to="end1" depart="167.470481" />
    <trip id="start1Toend1_36" type="conventional"  from="start1" to="end1" depart="168.290537" />
    <trip id="start1Toend1_37" type="conventional"  from="start1" to="end1" depart="168.419336" />
    <trip id="start2Toend1_35" type="conventional"  from="start2" to="end1" depart="170.631338" />
    <trip id="start1Toend2_32" type="conventional"  from="start1" to="end2" depart="170.818525" />
    <trip id="start1Toend1_38" type="conventional"  from="start1" to="end1" depart="172.045326" />
    <trip id="start1Toend2_33" type="conventional"  from="start1" to="end2" depart="173.154779" />
    <trip id="start1Toend1_39" type="conventional"  from="start1" to="end1" depart="176.409176" />
    <trip id="start2Toend1_36" type="conventional"  from="start2" to="end1" depart="177.313889" />
    <trip id="start1Toend2_34" type="conventional"  from="start1" to="end2" depart="177.619924" />
    <trip id="start1Toend1_40" type="conventional"  from="start1" to="end1" depart="177.809286" />
    <trip id="start2Toend2_42" type="conventional"  from="start2" to="end2" depart="177.897814" />
    <trip id="start1Toend1_41" type="conventional"  from="start1" to="end1" depart="178.289018" />
    <trip id="start2Toend1_37" type="conventional"  from="start2" to="end1" depart="183.818557" />
    <trip id="start2Toend1_38" type="conventional"  from="start2" to="end1" depart="185.762618" />
    <trip id="start1Toend1_42" type="conventional"  from="start1" to="end1" depart="189.940300" />
    <trip id="start1Toend2_35" type="conventional"  from="start1" to="end2" depart="190.556748" />
    <trip id="start2Toend1_39" type="conventional"  from="start2" to="end1" depart="192.265446" />
    <trip id="start2Toend2_43" type="conventional"  from="start2" to="end2" depart="192.673342" />
    <trip id="start1Toend2_36" type="conventional"  from="start1" to="end2" depart="193.462645" />
    <trip id="start1Toend1_43" type="conventional"  from="start1" to="end1" depart="195.671518" />
    <trip id="start2Toend2_44" type="conventional"  from="start2" to="end2" depart="197.230243" />
    <trip id="start1Toend1_44" type="conventional"  from="start1" to="end1" depart="198.363236" />
    <trip id="start1Toend2_37" type="conventional"  from="start1" to="end2" depart="198.914929" />
    <trip id="start1Toend2_38" type="conventional"  from="start1" to="end2" depart="198.983380" />
    <trip id="start2Toend1_40" type="conventional"  from="start2" to="end1" depart="201.623219" />
    <trip id="start1Toend1_45" type="conventional"  from="start1" to="end1" depart="203.680179" />
    <trip id="start2Toend1_41" type="conventional"  from="start2" to="end1" depart="207.014580" />
    <trip id="start1Toend1_46" type="conventional"  from="start1" to="end1" depart="207.321806" />
    <trip id="start2Toend2_45" type="conventional"  from="start2" to="end2" depart="207.790013" />
    <trip id="start1Toend1_47" type="conventional"  from="start1" to="end1" depart="209.629196" />
    <trip id="start1Toend2_39" type="conventional"  from="start1" to="end2" depart="209.884290" />
    <trip id="start1Toend1_48" type="conventional"  from="start1" to="end1" depart="210.167698" />
    <trip id="start2Toend1_42" type="conventional"  from="start2" to="end1" depart="210.601269" />
    <trip id="start1Toend1_49" type="conventional"  from="start1" to="end1" depart="210.752131" />
    <trip id="start2Toend1_43" type="conventional"  from="start2" to="end1" depart="211.071991" />
    <trip id="start2Toend2_46" type="conventional"  from="start2" to="end2" depart="212.193713" />
    <trip id="start1Toend1_50" type="conventional"  from="start1" to="end1" depart="212.867931" />
    <trip id="start2Toend1_44" type="conventional"  from="start2" to="end1" depart="213.126081" />
    <trip id="start1Toend2_40" type="conventional"  from="start1" to="end2" depart="214.551990" />
    <trip id="start2Toend1_45" type="conventional"  from="start2" to="end1" depart="214.800114" />
    <trip id="start1Toend2_41" type="conventional"  from="start1" to="end2" depart="215.278328" />
    <trip id="start2Toend2_47" type="conventional"  from="start2" to="end2" depart="215.726358" />
    <trip id="start2Toend1_46" type="conventional"  from="start2" to="end1" depart="219.192356" />
    <trip id="start1Toend1_51" type="conventional"  from="start1" to="end1" depart="220.964642" />
    <trip id="start2Toend1_47" type="conventional"  from="start2" to="end1" depart="221.674670" />
    <trip id="start1Toend2_42" type="conventional"  from="start1" to="end2" depart="221.904644" />
    <trip id="start1Toend1_52" type="conventional"  from="start1" to="end1" depart="222.631694" />
    <trip id="start1Toend2_43" type="conventional"  from="start1" to="end2" depart="224.230037" />
    <trip id="start1Toend2_44" type="conventional"  from="start1" to="end2" depart="224.773527" />
    <trip id="start1Toend1_53" type="conventional"  from="start1" to="end1" depart="225.867913" />
    <trip id="start2Toend2_48" type="conventional"  from="start2" to="end2" depart="226.428651" />
    <trip id="start2Toend1_48" type="conventional"  from="start2" to="end1" depart="229.117525" />
    <trip id="start1Toend2_45" type="conventional"  from="start1" to="end2" depart="229.438388" />
    <trip id="start1Toend2_46" type="conventional"  from="start1" to="end2" depart="230.663104" />
    <trip id="start2Toend1_49" type="conventional"  from="start2" to="end1" depart="231.104061" />
    <trip id="start1Toend1_54" type="conventional"  from="start1" to="end1" depart="231.671196" />
    <trip id="start1Toend2_47" type="conventional"  from="start1" to="end2" depart="231.862652" />
    <trip id="start1Toend1_55" type="conventional"  from="start1" to="end1" depart="234.539991" />
    <trip id="start1Toend1_56" type="conventional"  from="start1" to="end1" depart="239.827927" />
    <trip id="start2Toend2_49" type="conventional"  from="start2" to="end2" depart="240.769798" />
    <trip id="start2Toend2_50" type="conventional"  from="start2" to="end2" depart="243.174431" />
    <trip id="start1Toend2_48" type="conventional"  from="start1" to="end2" depart="251.719731" />
    <trip id="start1Toend2_49" type="conventional"  from="start1" to="end2" depart="253.203421" />
    <trip id="start1Toend2_50" type="conventional"  from="start1" to="end2" depart="253.686590" />
    <trip id="start2Toend1_50" type="conventional"  from="start2" to="end1" depart="253.740843" />
    <trip id="start1Toend2_51" type="conventional"  from="start1" to="end2" depart="254.805600" />
    <trip id="start2Toend2_51" type="conventional"  from="start2" to="end2" depart="255.452661" />
    <trip id="start2Toend1_51" type="conventional"  from="start2" to="end1" depart="257.185619" />
    <trip id="start1Toend1_57" type="conventional"  from="start1" to="end1" depart="257.651178" />
    <trip id="start2Toend1_52" type="conventional"  from="start2" to="end1" depart="257.678186" />
    <trip id="start2Toend2_52" type="conventional"  from="start2" to="end2" depart="259.018037" />
    <trip id="start1Toend1_58" type="conventional"  from="start1" to="end1" depart="259.884848" />
    <trip id="start2Toend2_53" type="conventional"  from="start2" to="end2" depart="260.880888" />
    <trip id="start2Toend1_53" type="conventional"  from="start2" to="end1" depart="264.025197" />
    <trip id="start1Toend2_52" type="conventional"  from="start1" to="end2" depart="264.419447" />
    <trip id="start2Toend2_54" type="conventional"  from="start2" to="end2" depart="265.439876" />
    <trip id="start2Toend2_55" type="conventional"  from="start2" to="end2" depart="273.231448" />
    <trip id="start2Toend2_56" type="conventional"  from="start2" to="end2" depart="273.242185" />
    <trip id="start1Toend1_59" type="conventional"  from="start1" to="end1" depart="274.126235" />
    <trip id="start1Toend1_60" type="conventional"  from="start1" to="end1" depart="274.886257" />
    <trip id="start2Toend1_54" type="conventional"  from="start2" to="end1" depart="277.282789" />
    <trip id="start2Toend2_57" type="conventional"  from="start2" to="end2" depart="278.967514" />
    <trip id="start2Toend2_58" type="conventional"  from="start2" to="end2" depart="279.321081" />
    <trip id="start2Toend2_59" type="conventional"  from="start2" to="end2" depart="279.917263" />
    <trip id="start2Toend2_60" type="conventional"  from="start2" to="end2" depart="280.037031" />
    <trip id="start2Toend1_55" type="conventional"  from="start2" to="end1" depart="282.132907" />
    <trip id="start2Toend1_56" type="conventional"  from="start2" to="end1" depart="282.418756" />
    <trip id="start1Toend2_53" type="conventional"  from="start1" to="end2" depart="283.062194" />
    <trip id="start2Toend2_61" type="conventional"  from="start2" to="end2" depart="284.297779" />
    <trip id="start1Toend1_61" type="conventional"  from="start1" to="end1" depart="285.625165" />
    <trip id="start1Toend2_54" type="conventional"  from="start1" to="end2" depart="286.553405" />
    <trip id="start2Toend1_57" type="conventional"  from="start2" to="end1" depart="286.907377" />
    <trip id="start2Toend1_58" type="conventional"  from="start2" to="end1" depart="287.254194" />
    <trip id="start2Toend2_62" type="conventional"  from="start2" to="end2" depart="289.425535" />
    <trip id="start2Toend1_59" type="conventional"  from="start2" to="end1" depart="295.130318" />
    <trip id="start1Toend2_55" type="conventional"  from="start1" to="end2" depart="297.151099" />
    <trip id="start2Toend2_63" type="conventional"  from="start2" to="end2" depart="299.203460" />
    <trip id="start1Toend1_62" type="conventional"  from="start1" to="end1" depart="300.265865" />
    <trip id="start1Toend2_56" type="conventional"  from="start1" to="end2" depart="301.423374" />
    <trip id="start1Toend1_63" type="conventional"  from="start1" to="end1" depart="304.311171" />
    <trip id="start2Toend1_60" type="conventional"  from="start2" to="end1" depart="304.905209" />
    <trip id="start2Toend1_61" type="conventional"  from="start2" to="end1" depart="306.182433" />
    <trip id="start2Toend1_62" type="conventional"  from="start2" to="end1" depart="308.252981" />
    <trip id="start1Toend2_57" type="conventional"  from="start1" to="end2" depart="308.295329" />
    <trip id="start2Toend1_63" type="conventional"  from="start2" to="end1" depart="308.552394" />
    <trip id="start2Toend1_64" type="conventional"  from="start2" to="end1" depart="308.649286" />
    <trip id="start1Toend2_58" type="conventional"  from="start1" to="end2" depart="310.737018" />
    <trip id="start2Toend2_64" type="conventional"  from="start2" to="end2" depart="312.594340" />
    <trip id="start2Toend2_65" type="conventional"  from="start2" to="end2" depart="313.057696" />
    <trip id="start2Toend1_65" type="conventional"  from="start2" to="end1" depart="315.353715" />
    <trip id="start2Toend2_66" type="conventional"  from="start2" to="end2" depart="316.888857" />
    <trip id="start1Toend2_59" type="conventional"  from="start1" to="end2" depart="319.862276" />
    <trip id="start2Toend1_66" type="conventional"  from="start2" to="end1" depart="321.880163" />
    <trip id="start2Toend2_67" type="conventional"  from="start2" to="end2" depart="321.997640" />
    <trip id="start1Toend1_64" type="conventional"  from="start1" to="end1" depart="322.978946" />
    <trip id="start2Toend2_68" type="conventional"  from="start2" to="end2" depart="325.774905" />
    <trip id="start2Toend2_69" type="conventional"  from="start2" to="end2" depart="326.266565" />
    <trip id="start1Toend2_60" type="conventional"  from="start1" to="end2" depart="328.719993" />
    <trip id="start2Toend2_70" type="conventional"  from="start2" to="end2" depart="329.407744" />
    <trip id="start1Toend1_65" type="conventional"  from="start1" to="end1" depart="329.732912" />
    <trip id="start2Toend2_71" type="conventional"  from="start2" to="end2" depart="331.932209" />
    <trip id="start1Toend1_66" type="conventional"  from="start1" to="end1" depart="333.234567" />
    <trip id="start1Toend2_61" type="conventional"  from="start1" to="end2" depart="333.664839" />
    <trip id="start1Toend1_67" type="conventional"  from="start1" to="end1" depart="333.927543" />
    <trip id="start1Toend1_68" type="conventional"  from="start1" to="end1" depart="336.406541" />
    <trip id="start1Toend1_69" type="conventional"  from="start1" to="end1" depart="336.809038" />
    <trip id="start2Toend1_67" type="conventional"  from="start2" to="end1" depart="337.214364" />
    <trip id="start1Toend2_62" type="conventional"  from="start1" to="end2" depart="337.853738" />
    <trip id="start1Toend1_70" type="conventional"  from="start1" to="end1" depart="338.589927" />
    <trip id="start2Toend1_68" type="conventional"  from="start2" to="end1" depart="340.601981" />
    <trip id="start1Toend2_63" type="conventional"  from="start1" to="end2" depart="341.850631" />
    <trip id="start1Toend2_64" type="conventional"  from="start1" to="end2" depart="343.496594" />
    <trip id="start2Toend2_72" type="conventional"  from="start2" to="end2" depart="344.547529" />
    <trip id="start2Toend1_69" type="conventional"  from="start2" to="end1" depart="345.746925" />
    <trip id="start1Toend1_71" type="conventional"  from="start1" to="end1" depart="345.791959" />
    <trip id="start1Toend2_65" type="conventional"  from="start1" to="end2" depart="346.969736" />
    <trip id="start1Toend1_72" type="conventional"  from="start1" to="end1" depart="347.706630" />