<?xml version="1.0" encoding="UTF-8"?>

<routes>

	<route id="route0" edges="start1 end1" />
    <route id="route1" edges="start1 end2" />
    <route id="route2" edges="start2 end1" />
    <route id="route3" edges="start2 end2" />


    <vType id="conventional" vClass="passenger" tau="5.5" minGap="7.5" carFollowModel="IDM" maxSpeed="40.00"/>
    <vType id="conventional_human" vClass="passenger" tau="5.5" minGap="7.5" carFollowModel="IDM" maxSpeed="40.00" color="52,128,235"/>
    <!--vType id="conventional_human" vClass="passenger" tau="3.5" minGap="5.5" carFollowModel="IDM" maxSpeed="28.00" color="52,128,235"/-->
    <vType id="non_merging" vClass="passenger" tau="5.5" minGap="7.5" carFollowModel="IDM" maxSpeed="40.00"/>
    <vType id="merging" vClass="passenger" carFollowModel="IDM" emergencyDecel="4.5" length="5" tau="0.1" maxSpeed="40.00" color="1,1,0" accel="10.3" decel="1.7" sigma="0.0" minGap="2.0"/>
    <!--vType id="connected" vClass="passenger" tau="2.5" minGap="5.5" carFollowModel="IDM" maxSpeed="28.00" lcCooperative="0.0" color="1,1,0" lcStrategic="1.0" accel="3.0" decel="1.5" emergencyDecel="4.5" lcSpeedGain="0.3" sigma="0.0" lcKeepRight="0.3"-->
    <vType id="connected" vClass="passenger" tau="5.5" minGap="7.5" carFollowModel="IDM" maxSpeed="1.00" emergencyDecel="4.5"/>
    <vType id="routeByDistance" maxSpeed="1"/>
    <vType id="connected_pCatchupFollower" vClass="passenger" carFollowModel="IDM" emergencyDecel="4.5" length="5" tau="0.1" maxSpeed="40.00" color="1,1,0" accel="10.3" decel="1.7" sigma="0.0" minGap="2.0"/>
    <vType id="connected_pCatchup" vClass="passenger" tau="0.1" carFollowModel="IDM" emergencyDecel="4.5" maxSpeed="40.00" color="0,0.8,0.3" accel="10.3" decel="1.7" sigma="0.0" minGap="2.0"/>
    <vType id="connected_pFollower" vClass="passenger" tau="0.1" carFollowModel="IDM" maxSpeed="40.00" color="1,1,0" accel="10.3" decel="1.7" sigma="0.0"  minGap="2.0" emergencyDecel="4.5"/>
    <vType id="connected_pLeader" vClass="passenger" length="5" carFollowModel="IDM" maxSpeed="40.00" lcCooperative="0.0" color="1,1,0" lcStrategic="1.0" accel="13.0" decel="1.5" emergencyDecel="4.5" lcSpeedGain="0.3" sigma="0.0" lcKeepRight="0.3"/>

    
	
    <trip id="start1Toend1_0" type="conventional"  from="start1" to="end1" depart="0.000000" />
    <trip id="start2Toend1_0" type="conventional"  from="start2" to="end1" depart="0.000000" />
    <trip id="start2Toend1_1" type="conventional"  from="start2" to="end1" depart="9.544371" />
    <trip id="start1Toend2_0" type="conventional"  from="start1" to="end2" depart="10.000000" />
    <trip id="start2Toend2_0" type="conventional"  from="start2" to="end2" depart="10.000000" />
    <trip id="start1Toend1_1" type="conventional"  from="start1" to="end1" depart="10.696665" />
    <trip id="start2Toend1_2" type="conventional"  from="start2" to="end1" depart="11.871243" />
    <trip id="start1Toend2_1" type="conventional"  from="start1" to="end2" depart="12.257871" />
    <trip id="start1Toend2_2" type="conventional"  from="start1" to="end2" depart="14.666732" />
    <trip id="start2Toend2_1" type="conventional"  from="start2" to="end2" depart="16.123672" />
    <trip id="start2Toend2_2" type="conventional"  from="start2" to="end2" depart="20.146195" />
    <trip id="start1Toend2_3" type="conventional"  from="start1" to="end2" depart="25.933251" />
    <trip id="start1Toend2_4" type="conventional"  from="start1" to="end2" depart="30.694953" />
    <trip id="start2Toend1_3" type="conventional"  from="start2" to="end1" depart="31.801984" />
    <trip id="start1Toend1_2" type="conventional"  from="start1" to="end1" depart="32.372526" />
    <trip id="start1Toend2_5" type="conventional"  from="start1" to="end2" depart="34.376320" />
    <trip id="start2Toend2_3" type="conventional"  from="start2" to="end2" depart="35.595428" />
    <trip id="start2Toend2_4" type="conventional"  from="start2" to="end2" depart="37.696105" />
    <trip id="start1Toend1_3" type="conventional"  from="start1" to="end1" depart="46.545124" />
    <trip id="start1Toend2_6" type="conventional"  from="start1" to="end2" depart="46.979621" />
    <trip id="start2Toend2_5" type="conventional"  from="start2" to="end2" depart="49.393981" />
    <trip id="start1Toend2_7" type="conventional"  from="start1" to="end2" depart="54.064354" />
    <trip id="start2Toend1_4" type="conventional"  from="start2" to="end1" depart="54.457230" />
    <trip id="start2Toend2_6" type="conventional"  from="start2" to="end2" depart="57.395400" />
    <trip id="start1Toend2_8" type="conventional"  from="start1" to="end2" depart="60.550961" />
    <trip id="start2Toend1_5" type="conventional"  from="start2" to="end1" depart="63.923046" />
    <trip id="start2Toend1_6" type="conventional"  from="start2" to="end1" depart="66.256788" />
    <trip id="start1Toend1_4" type="conventional"  from="start1" to="end1" depart="70.152797" />
    <trip id="start1Toend2_9" type="conventional"  from="start1" to="end2" depart="79.491783" />
    <trip id="start1Toend2_10" type="conventional"  from="start1" to="end2" depart="84.907423" />
    <trip id="start2Toend2_7" type="conventional"  from="start2" to="end2" depart="85.797920" />
    <trip id="start2Toend1_7" type="conventional"  from="start2" to="end1" depart="87.390163" />
    <trip id="start2Toend2_8" type="conventional"  from="start2" to="end2" depart="91.912203" />
    <trip id="start2Toend2_9" type="conventional"  from="start2" to="end2" depart="92.541012" />
    <trip id="start2Toend2_10" type="conventional"  from="start2" to="end2" depart="93.903022" />
    <trip id="start2Toend2_11" type="conventional"  from="start2" to="end2" depart="95.150380" />
    <trip id="start2Toend2_12" type="conventional"  from="start2" to="end2" depart="95.342111" />
    <trip id="start2Toend1_8" type="conventional"  from="start2" to="end1" depart="95.640686" />
    <trip id="start2Toend2_13" type="conventional"  from="start2" to="end2" depart="98.588469" />
    <trip id="start1Toend1_5" type="conventional"  from="start1" to="end1" depart="99.729857" />
    <trip id="start1Toend2_11" type="conventional"  from="start1" to="end2" depart="100.620603" />
    <trip id="start2Toend2_14" type="conventional"  from="start2" to="end2" depart="101.321568" />
    <trip id="start2Toend1_9" type="conventional"  from="start2" to="end1" depart="101.848336" />
    <trip id="start2Toend2_15" type="conventional"  from="start2" to="end2" depart="107.976640" />
    <trip id="start2Toend1_10" type="conventional"  from="start2" to="end1" depart="109.488977" />
    <trip id="start2Toend1_11" type="conventional"  from="start2" to="end1" depart="111.181316" />
    <trip id="start1Toend1_6" type="conventional"  from="start1" to="end1" depart="113.116076" />
    <trip id="start1Toend1_7" type="conventional"  from="start1" to="end1" depart="113.202345" />
    <trip id="start2Toend2_16" type="conventional"  from="start2" to="end2" depart="113.289779" />
    <trip id="start2Toend1_12" type="conventional"  from="start2" to="end1" depart="116.398480" />
    <trip id="start2Toend1_13" type="conventional"  from="start2" to="end1" depart="118.889413" />
    <trip id="start1Toend1_8" type="conventional"  from="start1" to="end1" depart="122.950563" />
    <trip id="start2Toend1_14" type="conventional"  from="start2" to="end1" depart="125.113628" />
    <trip id="start1Toend2_12" type="conventional"  from="start1" to="end2" depart="126.452447" />
    <trip id="start1Toend2_13" type="conventional"  from="start1" to="end2" depart="126.668552" />
    <trip id="start1Toend1_9" type="conventional"  from="start1" to="end1" depart="127.220076" />
    <trip id="start1Toend1_10" type="conventional"  from="start1" to="end1" depart="134.356157" />
    <trip id="start2Toend2_17" type="conventional"  from="start2" to="end2" depart="137.065906" />
    <trip id="start1Toend2_14" type="conventional"  from="start1" to="end2" depart="137.167102" />
    <trip id="start2Toend2_18" type="conventional"  from="start2" to="end2" depart="138.191814" />
    <trip id="start2Toend1_15" type="conventional"  from="start2" to="end1" depart="139.807864" />
    <trip id="start2Toend2_19" type="conventional"  from="start2" to="end2" depart="140.230042" />
    <trip id="start1Toend2_15" type="conventional"  from="start1" to="end2" depart="150.772472" />
    <trip id="start2Toend1_16" type="conventional"  from="start2" to="end1" depart="154.054473" />
    <trip id="start2Toend1_17" type="conventional"  from="start2" to="end1" depart="160.172210" />
    <trip id="start1Toend1_11" type="conventional"  from="start1" to="end1" depart="162.173337" />
    <trip id="start2Toend1_18" type="conventional"  from="start2" to="end1" depart="168.499294" />
    <trip id="start2Toend1_19" type="conventional"  from="start2" to="end1" depart="169.481374" />
    <trip id="start1Toend2_16" type="conventional"  from="start1" to="end2" depart="171.505729" />
    <trip id="start1Toend1_12" type="conventional"  from="start1" to="end1" depart="177.197243" />
    <trip id="start1Toend1_13" type="conventional"  from="start1" to="end1" depart="182.639925" />
    <trip id="start1Toend2_17" type="conventional"  from="start1" to="end2" depart="184.281557" />
    <trip id="start2Toend2_20" type="conventional"  from="start2" to="end2" depart="192.545798" />
    <trip id="start1Toend1_14" type="conventional"  from="start1" to="end1" depart="194.793157" />
    <trip id="start2Toend2_21" type="conventional"  from="start2" to="end2" depart="195.822378" />
    <trip id="start1Toend1_15" type="conventional"  from="start1" to="end1" depart="201.530346" />
    <trip id="start1Toend1_16" type="conventional"  from="start1" to="end1" depart="202.054432" />
    <trip id="start1Toend2_18" type="conventional"  from="start1" to="end2" depart="205.894518" />
    <trip id="start1Toend2_19" type="conventional"  from="start1" to="end2" depart="207.910130" />
    <trip id="start2Toend1_20" type="conventional"  from="start2" to="end1" depart="208.065371" />
    <trip id="start1Toend2_20" type="conventional"  from="start1" to="end2" depart="209.545173" />
    <trip id="start2Toend2_22" type="conventional"  from="start2" to="end2" depart="215.739768" />
    <trip id="start2Toend1_21" type="conventional"  from="start2" to="end1" depart="215.886881" />
    <trip id="start1Toend2_21" type="conventional"  from="start1" to="end2" depart="219.769743" />
    <trip id="start2Toend2_23" type="conventional"  from="start2" to="end2" depart="220.161785" />
    <trip id="start1Toend1_17" type="conventional"  from="start1" to="end1" depart="224.041843" />
    <trip id="start1Toend1_18" type="conventional"  from="start1" to="end1" depart="229.246367" />
    <trip id="start2Toend1_22" type="conventional"  from="start2" to="end1" depart="233.688709" />
    <trip id="start2Toend1_23" type="conventional"  from="start2" to="end1" depart="239.593798" />
    <trip id="start2Toend1_24" type="conventional"  from="start2" to="end1" depart="241.809625" />
    <trip id="start1Toend1_19" type="conventional"  from="start1" to="end1" depart="245.469490" />
    <trip id="start1Toend2_22" type="conventional"  from="start1" to="end2" depart="248.137725" />
    <trip id="start2Toend2_24" type="conventional"  from="start2" to="end2" depart="249.051091" />
    <trip id="start1Toend2_23" type="conventional"  from="start1" to="end2" depart="249.120564" />
    <trip id="start2Toend2_25" type="conventional"  from="start2" to="end2" depart="249.121669" />
    <trip id="start1Toend2_24" type="conventional"  from="start1" to="end2" depart="250.705415" />
    <trip id="start1Toend1_20" type="conventional"  from="start1" to="end1" depart="251.684680" />
    <trip id="start1Toend1_21" type="conventional"  from="start1" to="end1" depart="260.430879" />
    <trip id="start1Toend2_25" type="conventional"  from="start1" to="end2" depart="262.505927" />
    <trip id="start1Toend1_22" type="conventional"  from="start1" to="end1" depart="264.604879" />
    <trip id="start1Toend1_23" type="conventional"  from="start1" to="end1" depart="265.349970" />
    <trip id="start2Toend1_25" type="conventional"  from="start2" to="end1" depart="268.326336" />
    <trip id="start2Toend2_26" type="conventional"  from="start2" to="end2" depart="272.612410" />
    <trip id="start2Toend2_27" type="conventional"  from="start2" to="end2" depart="283.602119" />
    <trip id="start1Toend1_24" type="conventional"  from="start1" to="end1" depart="287.814373" />
    <trip id="start1Toend2_26" type="conventional"  from="start1" to="end2" depart="289.347610" />
    <trip id="start2Toend2_28" type="conventional"  from="start2" to="end2" depart="296.808651" />
    <trip id="start2Toend1_26" type="conventional"  from="start2" to="end1" depart="297.896314" />
    <trip id="start1Toend1_25" type="conventional"  from="start1" to="end1" depart="302.093522" />
    <trip id="start2Toend1_27" type="conventional"  from="start2" to="end1" depart="302.529278" />
    <trip id="start2Toend2_29" type="conventional"  from="start2" to="end2" depart="302.832173" />
    <trip id="start1Toend1_26" type="conventional"  from="start1" to="end1" depart="308.599484" />
    <trip id="start1Toend2_27" type="conventional"  from="start1" to="end2" depart="310.057586" />
    <trip id="start2Toend2_30" type="conventional"  from="start2" to="end2" depart="312.870027" />
    <trip id="start2Toend2_31" type="conventional"  from="start2" to="end2" depart="313.483716" />
    <trip id="start1Toend2_28" type="conventional"  from="start1" to="end2" depart="318.686194" />
    <trip id="start2Toend2_32" type="conventional"  from="start2" to="end2" depart="321.227233" />
    <trip id="start1Toend2_29" type="conventional"  from="start1" to="end2" depart="326.229941" />
    <trip id="start1Toend1_27" type="conventional"  from="start1" to="end1" depart="329.085880" />
    <trip id="start2Toend1_28" type="conventional"  from="start2" to="end1" depart="331.746903" />
    <trip id="start1Toend1_28" type="conventional"  from="start1" to="end1" depart="332.034772" />
    <trip id="start1Toend1_29" type="conventional"  from="start1" to="end1" depart="335.750389" />
    <trip id="start1Toend2_30" type="conventional"  from="start1" to="end2" depart="336.266876" />
    <trip id="start1Toend2_31" type="conventional"  from="start1" to="end2" depart="337.636037" />
    <trip id="start2Toend1_29" type="conventional"  from="start2" to="end1" depart="339.053704" />
    <trip id="start1Toend2_32" type="conventional"  from="start1" to="end2" depart="350.452928" />
    <trip id="start1Toend2_33" type="conventional"  from="start1" to="end2" depart="351.134861" />
    <trip id="start2Toend1_30" type="conventional"  from="start2" to="end1" depart="351.327659" />
    <trip id="start2Toend2_33" type="conventional"  from="start2" to="end2" depart="351.539020" />
    <trip id="start2Toend1_31" type="conventional"  from="start2" to="end1" depart="353.558820" />
    <trip id="start2Toend2_34" type="conventional"  from="start2" to="end2" depart="356.515455" />
    <trip id="start1Toend1_30" type="conventional"  from="start1" to="end1" depart="363.696271" />
    <trip id="start2Toend2_35" type="conventional"  from="start2" to="end2" depart="364.178030" />
    <trip id="start2Toend1_32" type="conventional"  from="start2" to="end1" depart="366.524096" />
    <trip id="start1Toend1_31" type="conventional"  from="start1" to="end1" depart="367.917523" />
    <trip id="start2Toend1_33" type="conventional"  from="start2" to="end1" depart="370.314987" />
    <trip id="start1Toend2_34" type="conventional"  from="start1" to="end2" depart="370.904466" />
    <trip id="start1Toend2_35" type="conventional"  from="start1" to="end2" depart="370.973063" />
    <trip id="start2Toend2_36" type="conventional"  from="start2" to="end2" depart="376.584601" />
    <trip id="start2Toend2_37" type="conventional"  from="start2" to="end2" depart="379.147713" />
    <trip id="start2Toend2_38" type="conventional"  from="start2" to="end2" depart="381.635887" />
    <trip id="start1Toend1_32" type="conventional"  from="start1" to="end1" depart="385.645539" />
    <trip id="start1Toend1_33" type="conventional"  from="start1" to="end1" depart="387.063219" />
    <trip id="start1Toend2_36" type="conventional"  from="start1" to="end2" depart="391.998703" />
    <trip id="start2Toend1_34" type="conventional"  from="start2" to="end1" depart="392.812443" />
    <trip id="start2Toend1_35" type="conventional"  from="start2" to="end1" depart="393.364556" />
    <trip id="start1Toend2_37" type="conventional"  from="start1" to="end2" depart="395.682613" />
    <trip id="start1Toend1_34" type="conventional"  from="start1" to="end1" depart="403.922524" />
    <trip id="start2Toend2_39" type="conventional"  from="start2" to="end2" depart="404.167961" />
    <trip id="start1Toend2_38" type="conventional"  from="start1" to="end2" depart="404.173095" />
    <trip id="start1Toend1_35" type="conventional"  from="start1" to="end1" depart="406.578454" />
    <trip id="start1Toend1_36" type="conventional"  from="start1" to="end1" depart="410.155423" />
    <trip id="start2Toend2_40" type="conventional"  from="start2" to="end2" depart="412.066680" />
    <trip id="start1Toend2_39" type="conventional"  from="start1" to="end2" depart="415.365082" />
    <trip id="start2Toend1_36" type="conventional"  from="start2" to="end1" depart="415.703208" />
    <trip id="start2Toend2_41" type="conventional"  from="start2" to="end2" depart="419.771705" />
    <trip id="start1Toend1_37" type="conventional"  from="start1" to="end1" depart="425.039810" />
    <trip id="start1Toend1_38" type="conventional"  from="start1" to="end1" depart="425.810297" />
    <trip id="start1Toend1_39" type="conventional"  from="start1" to="end1" depart="429.181151" />
    <trip id="start2Toend2_42" type="conventional"  from="start2" to="end2" depart="429.778094" />
    <trip id="start2Toend2_43" type="conventional"  from="start2" to="end2" depart="430.994104" />
    <trip id="start1Toend1_40" type="conventional"  from="start1" to="end1" depart="434.932744" />
    <trip id="start1Toend1_41" type="conventional"  from="start1" to="end1" depart="435.085071" />
    <trip id="start1Toend2_40" type="conventional"  from="start1" to="end2" depart="436.010751" />
    <trip id="start1Toend1_42" type="conventional"  from="start1" to="end1" depart="437.849064" />
    <trip id="start1Toend1_43" type="conventional"  from="start1" to="end1" depart="438.282201" />
    <trip id="start2Toend2_44" type="conventional"  from="start2" to="end2" depart="441.523880" />
    <trip id="start2Toend2_45" type="conventional"  from="start2" to="end2" depart="441.678067" />
    <trip id="start2Toend1_37" type="conventional"  from="start2" to="end1" depart="446.796086" />
    <trip id="start2Toend1_38" type="conventional"  from="start2" to="end1" depart="447.656826" />
    <trip id="start1Toend2_41" type="conventional"  from="start1" to="end2" depart="449.102654" />
    <trip id="start2Toend2_46" type="conventional"  from="start2" to="end2" depart="456.747218" />
    <trip id="start2Toend2_47" type="conventional"  from="start2" to="end2" depart="459.078938" />
    <trip id="start2Toend2_48" type="conventional"  from="start2" to="end2" depart="459.225515" />
    <trip id="start2Toend1_39" type="conventional"  from="start2" to="end1" depart="464.641475" />
    <trip id="start2Toend2_49" type="conventional"  from="start2" to="end2" depart="467.694715" />
    <trip id="start1Toend2_42" type="conventional"  from="start1" to="end2" depart="467.769338" />
    <trip id="start2Toend1_40" type="conventional"  from="start2" to="end1" depart="468.053346" />
    <trip id="start2Toend2_50" type="conventional"  from="start2" to="end2" depart="471.017258" />
    <trip id="start1Toend1_44" type="conventional"  from="start1" to="end1" depart="482.242822" />
    <trip id="start1Toend1_45" type="conventional"  from="start1" to="end1" depart="485.094405" />
    <trip id="start2Toend2_51" type="conventional"  from="start2" to="end2" depart="485.489942" />
    <trip id="start1Toend2_43" type="conventional"  from="start1" to="end2" depart="487.615611" />
    <trip id="start2Toend1_41" type="conventional"  from="start2" to="end1" depart="488.988256" />
    <trip id="start2Toend2_52" type="conventional"  from="start2" to="end2" depart="489.800290" />
    <trip id="start2Toend1_42" type="conventional"  from="start2" to="end1" depart="493.056577" />
    <trip id="start2Toend1_43" type="conventional"  from="start2" to="end1" depart="499.427008" />
    <trip id="start1Toend1_46" type="conventional"  from="start1" to="end1" depart="504.009430" />
    <trip id="start1Toend1_47" type="conventional"  from="start1" to="end1" depart="504.792477" />
    <trip id="start1Toend2_44" type="conventional"  from="start1" to="end2" depart="505.803327" />
    <trip id="start2Toend2_53" type="conventional"  from="start2" to="end2" depart="507.165054" />
    <trip id="start1Toend1_48" type="conventional"  from="start1" to="end1" depart="507.548549" />
    <trip id="start1Toend1_49" type="conventional"  from="start1" to="end1" depart="508.042736" />
    <trip id="start1Toend1_50" type="conventional"  from="start1" to="end1" depart="509.775314" />
    <trip id="start1Toend2_45" type="conventional"  from="start1" to="end2" depart="510.859837" />
    <trip id="start2Toend1_44" type="conventional"  from="start2" to="end1" depart="517.019105" />
    <trip id="start1Toend1_51" type="conventional"  from="start1" to="end1" depart="517.403675" />
    <trip id="start2Toend2_54" type="conventional"  from="start2" to="end2" depart="519.290447" />
    <trip id="start2Toend2_55" type="conventional"  from="start2" to="end2" depart="519.511972" />
    <trip id="start2Toend2_56" type="conventional"  from="start2" to="end2" depart="524.091901" />
    <trip id="start1Toend2_46" type="conventional"  from="start1" to="end2" depart="528.142023" />
    <trip id="start1Toend1_52" type="conventional"  from="start1" to="end1" depart="529.465329" />
    <trip id="start2Toend2_57" type="conventional"  from="start2" to="end2" depart="531.441389" />
    <trip id="start1Toend2_47" type="conventional"  from="start1" to="end2" depart="532.972662" />
    <trip id="start1Toend2_48" type="conventional"  from="start1" to="end2" depart="534.346215" />
    <trip id="start2Toend2_58" type="conventional"  from="start2" to="end2" depart="541.189632" />
    <trip id="start1Toend1_53" type="conventional"  from="start1" to="end1" depart="543.257334" />
    <trip id="start2Toend2_59" type="conventional"  from="start2" to="end2" depart="551.828645" />
    <trip id="start1Toend1_54" type="conventional"  from="start1" to="end1" depart="551.905261" />
    <trip id="start2Toend1_45" type="conventional"  from="start2" to="end1" depart="561.116048" />
    <trip id="start1Toend2_49" type="conventional"  from="start1" to="end2" depart="564.433051" />
    <trip id="start1Toend2_50" type="conventional"  from="start1" to="end2" depart="564.725365" />
    <trip id="start1Toend1_55" type="conventional"  from="start1" to="end1" depart="566.305926" />
    <trip id="start1Toend1_56" type="conventional"  from="start1" to="end1" depart="568.100369" />
    <trip id="start2Toend1_46" type="conventional"  from="start2" to="end1" depart="569.768447" />
    <trip id="start2Toend1_47" type="conventional"  from="start2" to="end1" depart="578.457573" />
    <trip id="start2Toend1_48" type="conventional"  from="start2" to="end1" depart="581.473206" />
    <trip id="start2Toend2_60" type="conventional"  from="start2" to="end2" depart="583.188025" />
    <trip id="start1Toend2_51" type="conventional"  from="start1" to="end2" depart="589.755385" />
    <trip id="start1Toend1_57" type="conventional"  from="start1" to="end1" depart="591.903025" />
    <trip id="start2Toend2_61" type="conventional"  from="start2" to="end2" depart="593.937699" />
    <trip id="start1Toend1_58" type="conventional"  from="start1" to="end1" depart="594.779904" />
    <trip id="start1Toend1_59" type="conventional"  from="start1" to="end1" depart="594.964165" />
    <trip id="start1Toend1_60" type="conventional"  from="start1" to="end1" depart="600.129699" />
    <trip id="start1Toend2_52" type="conventional"  from="start1" to="end2" depart="600.458735" />
    <trip id="start1Toend2_53" type="conventional"  from="start1" to="end2" depart="612.808792" />
    <trip id="start2Toend1_49" type="conventional"  from="start2" to="end1" depart="616.415929" />
    <trip id="start2Toend2_62" type="conventional"  from="start2" to="end2" depart="616.866952" />
    <trip id="start2Toend2_63" type="conventional"  from="start2" to="end2" depart="626.849475" />
    <trip id="start1Toend2_54" type="conventional"  from="start1" to="end2" depart="628.410871" />
    <trip id="start1Toend2_55" type="conventional"  from="start1" to="end2" depart="628.943060" />
    <trip id="start1Toend1_61" type="conventional"  from="start1" to="end1" depart="640.016914" />
    <trip id="start1Toend2_56" type="conventional"  from="start1" to="end2" depart="642.284008" />
    <trip id="start2Toend1_50" type="conventional"  from="start2" to="end1" depart="653.364129" />
    <trip id="start1Toend2_57" type="conventional"  from="start1" to="end2" depart="654.404779" />
    <trip id="start2Toend1_51" type="conventional"  from="start2" to="end1" depart="659.465575" />
    <trip id="start1Toend2_58" type="conventional"  from="start1" to="end2" depart="659.921458" />
    <trip id="start1Toend2_59" type="conventional"  from="start1" to="end2" depart="661.434635" />
    <trip id="start2Toend2_64" type="conventional"  from="start2" to="end2" depart="662.989142" />
    <trip id="start2Toend1_52" type="conventional"  from="start2" to="end1" depart="663.470932" />
    <trip id="start1Toend1_62" type="conventional"  from="start1" to="end1" depart="665.876672" />
    <trip id="start1Toend2_60" type="conventional"  from="start1" to="end2" depart="670.912173" />
    <trip id="start2Toend1_53" type="conventional"  from="start2" to="end1" depart="674.049115" />
    <trip id="start1Toend1_63" type="conventional"  from="start1" to="end1" depart="674.774668" />
    <trip id="start1Toend2_61" type="conventional"  from="start1" to="end2" depart="677.195500" />
    <trip id="start1Toend2_62" type="conventional"  from="start1" to="end2" depart="680.324255" />
    <trip id="start1Toend1_64" type="conventional"  from="start1" to="end1" depart="681.535068" />
    <trip id="start1Toend2_63" type="conventional"  from="start1" to="end2" depart="682.417262" />
    <trip id="start1Toend2_64" type="conventional"  from="start1" to="end2" depart="682.795133" />
    <trip id="start1Toend1_65" type="conventional"  from="start1" to="end1" depart="690.841660" />
    <trip id="start2Toend2_65" type="conventional"  from="start2" to="end2" depart="692.135165" />
    <trip id="start1Toend1_66" type="conventional"  from="start1" to="end1" depart="696.305037" />
    <trip id="start2Toend1_54" type="conventional"  from="start2" to="end1" depart="696.769642" />
    <trip id="start1Toend2_65" type="conventional"  from="start1" to="end2" depart="698.920888" />
    <trip id="start2Toend1_55" type="conventional"  from="start2" to="end1" depart="701.774453" />
    <trip id="start2Toend1_56" type="conventional"  from="start2" to="end1" depart="708.605798" />
    <trip id="start2Toend1_57" type="conventional"  from="start2" to="end1" depart="715.002204" />
    <trip id="start1Toend1_67" type="conventional"  from="start1" to="end1" depart="715.606336" />
    <trip id="start1Toend2_66" type="conventional"  from="start1" to="end2" depart="718.930288" />
    <trip id="start2Toend2_66" type="conventional"  from="start2" to="end2" depart="725.143663" />
    <trip id="start1Toend1_68" type="conventional"  from="start1" to="end1" depart="726.939493" />
    <trip id="start2Toend2_67" type="conventional"  from="start2" to="end2" depart="728.644649" />
    <trip id="start2Toend2_68" type="conventional"  from="start2" to="end2" depart="729.274916" />
    <trip id="start1Toend2_67" type="conventional"  from="start1" to="end2" depart="732.684386" />
    <trip id="start1Toend2_68" type="conventional"  from="start1" to="end2" depart="734.958828" />
    <trip id="start2Toend1_58" type="conventional"  from="start2" to="end1" depart="735.659079" />
    <trip id="start1Toend1_69" type="conventional"  from="start1" to="end1" depart="737.073125" />
    <trip id="start1Toend1_70" type="conventional"  from="start1" to="end1" depart="738.060487" />
    <trip id="start1Toend1_71" type="conventional"  from="start1" to="end1" depart="739.011359" />
    <trip id="start2Toend1_59" type="conventional"  from="start2" to="end1" depart="745.536501" />
    <trip id="start1Toend1_72" type="conventional"  from="start1" to="end1" depart="748.930048" />
    <trip id="start2Toend1_60" type="conventional"  from="start2" to="end1" depart="749.315265" />
    <trip id="start2Toend2_69" type="conventional"  from="start2" to="end2" depart="756.284649" />
    <trip id="start1Toend2_69" type="conventional"  from="start1" to="end2" depart="758.785751" />
    <trip id="start2Toend2_70" type="conventional"  from="start2" to="end2" depart="762.865099" />
    <trip id="start2Toend1_61" type="conventional"  from="start2" to="end1" depart="766.159589" />
    <trip id="start1Toend2_70" type="conventional"  from="start1" to="end2" depart="767.448480" />
    <trip id="start1Toend1_73" type="conventional"  from="start1" to="end1" depart="770.899558" />
    <trip id="start2Toend1_62" type="conventional"  from="start2" to="end1" depart="771.064914" />
    <trip id="start2Toend2_71" type="conventional"  from="start2" to="end2" depart="773.099520" />
    <trip id="start2Toend2_72" type="conventional"  from="start2" to="end2" depart="774.490069" />