<?xml version="1.0" encoding="UTF-8"?>

<routes>

	<route id="route0" edges="start1 end1" />
    <route id="route1" edges="start1 end2" />
    <route id="route2" edges="start2 end1" />
    <route id="route3" edges="start2 end2" />


    <vType id="conventional" vClass="passenger" tau="5.5" minGap="7.5" carFollowModel="IDM" maxSpeed="40.00"/>
    <vType id="conventional_human" vClass="passenger" tau="5.5" minGap="7.5" carFollowModel="IDM" maxSpeed="40.00" color="52,128,235"/>
    <!--vType id="conventional_human" vClass="passenger" tau="3.5" minGap="5.5" carFollowModel="IDM" maxSpeed="28.00" color="52,128,235"/-->
    <vType id="non_merging" vClass="passenger" tau="5.5" minGap="7.5" carFollowModel="IDM" maxSpeed="40.00"/>
    <vType id="merging" vClass="passenger" carFollowModel="IDM" emergencyDecel="4.5" length="5" tau="0.1" maxSpeed="40.00" color="1,1,0" accel="10.3" decel="1.7" sigma="0.0" minGap="2.0"/>
    <!--vType id="connected" vClass="passenger" tau="2.5" minGap="5.5" carFollowModel="IDM" maxSpeed="28.00" lcCooperative="0.0" color="1,1,0" lcStrategic="1.0" accel="3.0" decel="1.5" emergencyDecel="4.5" lcSpeedGain="0.3" sigma="0.0" lcKeepRight="0.3"-->
    <vType id="connected" vClass="passenger" tau="5.5" minGap="7.5" carFollowModel="IDM" maxSpeed="1.00" emergencyDecel="4.5"/>
    <vType id="routeByDistance" maxSpeed="1"/>
    <vType id="connected_pCatchupFollower" vClass="passenger" carFollowModel="IDM" emergencyDecel="4.5" length="5" tau="0.1" maxSpeed="40.00" color="1,1,0" accel="10.3" decel="1.7" sigma="0.0" minGap="2.0"/>
    <vType id="connected_pCatchup" vClass="passenger" tau="0.1" carFollowModel="IDM" emergencyDecel="4.5" maxSpeed="40.00" color="0,0.8,0.3" accel="10.3" decel="1.7" sigma="0.0" minGap="2.0"/>
    <vType id="connected_pFollower" vClass="passenger" tau="0.1" carFollowModel="IDM" maxSpeed="40.00" color="1,1,0" accel="10.3" decel="1.7" sigma="0.0"  minGap="2.0" emergencyDecel="4.5"/>
    <vType id="connected_pLeader" vClass="passenger" length="5" carFollowModel="IDM" maxSpeed="40.00" lcCooperative="0.0" color="1,1,0" lcStrategic="1.0" accel="13.0" decel="1.5" emergencyDecel="4.5" lcSpeedGain="0.3" sigma="0.0" lcKeepRight="0.3"/>

	
    <trip id="start1Toend1_0" type="conventional"  from="start1" to="end1" depart="0.000000" />
    <trip id="start2Toend1_0" type="conventional"  from="start2" to="end1" depart="0.000000" />
    <trip id="start1Toend1_1" type="conventional"  from="start1" to="end1" depart="7.053261" />
    <trip id="start1Toend2_0" type="conventional"  from="start1" to="end2" depart="10.000000" />
    <trip id="start2Toend2_0" type="conventional"  from="start2" to="end2" depart="10.000000" />
    <trip id="start1Toend2_1" type="conventional"  from="start1" to="end2" depart="11.568555" />
    <trip id="start1Toend1_2" type="conventional"  from="start1" to="end1" depart="14.440089" />
    <trip id="start2Toend1_1" type="conventional"  from="start2" to="end1" depart="19.121292" />
    <trip id="start1Toend2_2" type="conventional"  from="start1" to="end2" depart="20.336018" />
    <trip id="start2Toend2_1" type="conventional"  from="start2" to="end2" depart="20.952292" />
    <trip id="start1Toend1_3" type="conventional"  from="start1" to="end1" depart="23.109016" />
    <trip id="start1Toend1_4" type="conventional"  from="start1" to="end1" depart="23.946646" />
    <trip id="start2Toend2_2" type="conventional"  from="start2" to="end2" depart="29.245669" />
    <trip id="start2Toend2_3" type="conventional"  from="start2" to="end2" depart="35.468441" />
    <trip id="start2Toend2_4" type="conventional"  from="start2" to="end2" depart="40.054919" />
    <trip id="start2Toend1_2" type="conventional"  from="start2" to="end1" depart="45.780302" />
    <trip id="start1Toend2_3" type="conventional"  from="start1" to="end2" depart="49.548154" />
    <trip id="start1Toend2_4" type="conventional"  from="start1" to="end2" depart="50.325055" />
    <trip id="start1Toend2_5" type="conventional"  from="start1" to="end2" depart="53.430641" />
    <trip id="start2Toend1_3" type="conventional"  from="start2" to="end1" depart="55.763052" />
    <trip id="start2Toend2_5" type="conventional"  from="start2" to="end2" depart="56.585684" />
    <trip id="start1Toend2_6" type="conventional"  from="start1" to="end2" depart="57.196344" />
    <trip id="start2Toend1_4" type="conventional"  from="start2" to="end1" depart="58.810682" />
    <trip id="start1Toend2_7" type="conventional"  from="start1" to="end2" depart="69.534911" />
    <trip id="start1Toend2_8" type="conventional"  from="start1" to="end2" depart="73.148469" />
    <trip id="start1Toend1_5" type="conventional"  from="start1" to="end1" depart="73.742549" />
    <trip id="start1Toend2_9" type="conventional"  from="start1" to="end2" depart="76.721309" />
    <trip id="start1Toend2_10" type="conventional"  from="start1" to="end2" depart="77.950436" />
    <trip id="start2Toend2_6" type="conventional"  from="start2" to="end2" depart="82.100090" />
    <trip id="start2Toend1_5" type="conventional"  from="start2" to="end1" depart="83.413457" />
    <trip id="start2Toend2_7" type="conventional"  from="start2" to="end2" depart="83.629178" />
    <trip id="start2Toend1_6" type="conventional"  from="start2" to="end1" depart="84.712625" />
    <trip id="start1Toend1_6" type="conventional"  from="start1" to="end1" depart="85.039473" />
    <trip id="start2Toend2_8" type="conventional"  from="start2" to="end2" depart="99.899566" />
    <trip id="start1Toend1_7" type="conventional"  from="start1" to="end1" depart="111.253740" />
    <trip id="start1Toend1_8" type="conventional"  from="start1" to="end1" depart="111.482374" />
    <trip id="start2Toend2_9" type="conventional"  from="start2" to="end2" depart="117.309023" />
    <trip id="start1Toend2_11" type="conventional"  from="start1" to="end2" depart="120.453738" />
    <trip id="start2Toend2_10" type="conventional"  from="start2" to="end2" depart="134.591222" />
    <trip id="start2Toend1_7" type="conventional"  from="start2" to="end1" depart="141.500030" />
    <trip id="start1Toend2_12" type="conventional"  from="start1" to="end2" depart="145.729562" />
    <trip id="start1Toend1_9" type="conventional"  from="start1" to="end1" depart="150.673877" />
    <trip id="start2Toend2_11" type="conventional"  from="start2" to="end2" depart="151.859236" />
    <trip id="start1Toend1_10" type="conventional"  from="start1" to="end1" depart="152.281358" />
    <trip id="start2Toend1_8" type="conventional"  from="start2" to="end1" depart="153.644753" />
    <trip id="start1Toend2_13" type="conventional"  from="start1" to="end2" depart="153.664609" />
    <trip id="start1Toend2_14" type="conventional"  from="start1" to="end2" depart="161.234318" />
    <trip id="start2Toend2_12" type="conventional"  from="start2" to="end2" depart="164.418564" />
    <trip id="start2Toend2_13" type="conventional"  from="start2" to="end2" depart="174.755347" />
    <trip id="start2Toend2_14" type="conventional"  from="start2" to="end2" depart="177.376454" />
    <trip id="start1Toend1_11" type="conventional"  from="start1" to="end1" depart="177.437137" />
    <trip id="start1Toend2_15" type="conventional"  from="start1" to="end2" depart="183.962291" />
    <trip id="start1Toend1_12" type="conventional"  from="start1" to="end1" depart="184.416539" />
    <trip id="start2Toend2_15" type="conventional"  from="start2" to="end2" depart="185.829500" />
    <trip id="start1Toend1_13" type="conventional"  from="start1" to="end1" depart="187.447465" />
    <trip id="start2Toend1_9" type="conventional"  from="start2" to="end1" depart="193.244928" />
    <trip id="start2Toend2_16" type="conventional"  from="start2" to="end2" depart="204.727215" />
    <trip id="start2Toend2_17" type="conventional"  from="start2" to="end2" depart="218.771623" />
    <trip id="start1Toend1_14" type="conventional"  from="start1" to="end1" depart="224.815277" />
    <trip id="start1Toend1_15" type="conventional"  from="start1" to="end1" depart="233.563807" />
    <trip id="start2Toend1_10" type="conventional"  from="start2" to="end1" depart="239.667831" />
    <trip id="start2Toend2_18" type="conventional"  from="start2" to="end2" depart="244.346888" />
    <trip id="start1Toend2_16" type="conventional"  from="start1" to="end2" depart="245.898082" />
    <trip id="start2Toend2_19" type="conventional"  from="start2" to="end2" depart="248.766386" />
    <trip id="start1Toend1_16" type="conventional"  from="start1" to="end1" depart="248.771577" />
    <trip id="start2Toend2_20" type="conventional"  from="start2" to="end2" depart="258.083457" />
    <trip id="start2Toend2_21" type="conventional"  from="start2" to="end2" depart="261.270592" />
    <trip id="start1Toend1_17" type="conventional"  from="start1" to="end1" depart="264.789018" />
    <trip id="start1Toend1_18" type="conventional"  from="start1" to="end1" depart="268.414858" />
    <trip id="start2Toend1_11" type="conventional"  from="start2" to="end1" depart="273.268899" />
    <trip id="start2Toend1_12" type="conventional"  from="start2" to="end1" depart="278.368256" />
    <trip id="start2Toend2_22" type="conventional"  from="start2" to="end2" depart="284.101996" />
    <trip id="start1Toend2_17" type="conventional"  from="start1" to="end2" depart="292.366774" />
    <trip id="start1Toend1_19" type="conventional"  from="start1" to="end1" depart="292.954336" />
    <trip id="start1Toend1_20" type="conventional"  from="start1" to="end1" depart="295.565077" />
    <trip id="start1Toend2_18" type="conventional"  from="start1" to="end2" depart="302.304478" />
    <trip id="start2Toend1_13" type="conventional"  from="start2" to="end1" depart="303.503339" />
    <trip id="start2Toend2_23" type="conventional"  from="start2" to="end2" depart="307.476810" />
    <trip id="start1Toend2_19" type="conventional"  from="start1" to="end2" depart="309.117292" />
    <trip id="start2Toend1_14" type="conventional"  from="start2" to="end1" depart="310.249296" />
    <trip id="start2Toend2_24" type="conventional"  from="start2" to="end2" depart="310.392258" />
    <trip id="start1Toend2_20" type="conventional"  from="start1" to="end2" depart="313.785635" />
    <trip id="start1Toend2_21" type="conventional"  from="start1" to="end2" depart="316.078292" />
    <trip id="start2Toend1_15" type="conventional"  from="start2" to="end1" depart="318.281654" />
    <trip id="start2Toend1_16" type="conventional"  from="start2" to="end1" depart="323.212271" />
    <trip id="start1Toend1_21" type="conventional"  from="start1" to="end1" depart="325.091589" />
    <trip id="start2Toend1_17" type="conventional"  from="start2" to="end1" depart="329.804927" />
    <trip id="start2Toend2_25" type="conventional"  from="start2" to="end2" depart="337.425929" />
    <trip id="start2Toend2_26" type="conventional"  from="start2" to="end2" depart="340.467397" />
    <trip id="start1Toend1_22" type="conventional"  from="start1" to="end1" depart="341.560681" />
    <trip id="start1Toend2_22" type="conventional"  from="start1" to="end2" depart="346.358369" />
    <trip id="start2Toend2_27" type="conventional"  from="start2" to="end2" depart="352.432127" />
    <trip id="start1Toend2_23" type="conventional"  from="start1" to="end2" depart="352.827295" />
    <trip id="start1Toend1_23" type="conventional"  from="start1" to="end1" depart="353.490711" />
    <trip id="start1Toend1_24" type="conventional"  from="start1" to="end1" depart="357.298277" />
    <trip id="start2Toend2_28" type="conventional"  from="start2" to="end2" depart="358.235453" />
    <trip id="start1Toend1_25" type="conventional"  from="start1" to="end1" depart="366.803283" />
    <trip id="start1Toend2_24" type="conventional"  from="start1" to="end2" depart="372.607515" />
    <trip id="start2Toend1_18" type="conventional"  from="start2" to="end1" depart="374.341343" />
    <trip id="start1Toend1_26" type="conventional"  from="start1" to="end1" depart="379.431463" />
    <trip id="start2Toend1_19" type="conventional"  from="start2" to="end1" depart="380.243419" />
    <trip id="start2Toend1_20" type="conventional"  from="start2" to="end1" depart="383.357333" />
    <trip id="start1Toend1_27" type="conventional"  from="start1" to="end1" depart="384.462339" />
    <trip id="start1Toend1_28" type="conventional"  from="start1" to="end1" depart="390.751654" />
    <trip id="start2Toend1_21" type="conventional"  from="start2" to="end1" depart="395.070127" />
    <trip id="start2Toend1_22" type="conventional"  from="start2" to="end1" depart="397.282443" />
    <trip id="start2Toend2_29" type="conventional"  from="start2" to="end2" depart="400.358880" />
    <trip id="start1Toend1_29" type="conventional"  from="start1" to="end1" depart="401.777859" />
    <trip id="start1Toend2_25" type="conventional"  from="start1" to="end2" depart="407.670311" />
    <trip id="start2Toend1_23" type="conventional"  from="start2" to="end1" depart="413.360001" />
    <trip id="start1Toend1_30" type="conventional"  from="start1" to="end1" depart="420.869790" />
    <trip id="start1Toend1_31" type="conventional"  from="start1" to="end1" depart="421.905531" />
    <trip id="start1Toend2_26" type="conventional"  from="start1" to="end2" depart="422.262175" />
    <trip id="start2Toend2_30" type="conventional"  from="start2" to="end2" depart="422.912170" />
    <trip id="start1Toend2_27" type="conventional"  from="start1" to="end2" depart="423.815712" />
    <trip id="start1Toend2_28" type="conventional"  from="start1" to="end2" depart="426.804614" />
    <trip id="start1Toend1_32" type="conventional"  from="start1" to="end1" depart="426.816564" />
    <trip id="start2Toend2_31" type="conventional"  from="start2" to="end2" depart="429.423298" />
    <trip id="start1Toend1_33" type="conventional"  from="start1" to="end1" depart="431.912992" />
    <trip id="start1Toend1_34" type="conventional"  from="start1" to="end1" depart="436.087974" />
    <trip id="start2Toend2_32" type="conventional"  from="start2" to="end2" depart="438.039227" />
    <trip id="start1Toend2_29" type="conventional"  from="start1" to="end2" depart="441.097767" />
    <trip id="start2Toend2_33" type="conventional"  from="start2" to="end2" depart="443.042453" />
    <trip id="start1Toend2_30" type="conventional"  from="start1" to="end2" depart="447.381690" />
    <trip id="start1Toend2_31" type="conventional"  from="start1" to="end2" depart="451.487840" />
    <trip id="start2Toend1_24" type="conventional"  from="start2" to="end1" depart="451.999811" />
    <trip id="start2Toend1_25" type="conventional"  from="start2" to="end1" depart="454.086738" />
    <trip id="start2Toend2_34" type="conventional"  from="start2" to="end2" depart="455.602062" />
    <trip id="start1Toend2_32" type="conventional"  from="start1" to="end2" depart="465.352972" />
    <trip id="start1Toend2_33" type="conventional"  from="start1" to="end2" depart="467.162974" />
    <trip id="start1Toend2_34" type="conventional"  from="start1" to="end2" depart="467.828610" />
    <trip id="start2Toend2_35" type="conventional"  from="start2" to="end2" depart="470.962708" />
    <trip id="start2Toend1_26" type="conventional"  from="start2" to="end1" depart="472.063735" />
    <trip id="start2Toend1_27" type="conventional"  from="start2" to="end1" depart="473.366342" />
    <trip id="start2Toend1_28" type="conventional"  from="start2" to="end1" depart="478.948502" />
    <trip id="start2Toend2_36" type="conventional"  from="start2" to="end2" depart="479.545577" />
    <trip id="start1Toend2_35" type="conventional"  from="start1" to="end2" depart="482.837080" />
    <trip id="start2Toend1_29" type="conventional"  from="start2" to="end1" depart="485.552250" />
    <trip id="start2Toend1_30" type="conventional"  from="start2" to="end1" depart="487.527478" />
    <trip id="start1Toend1_35" type="conventional"  from="start1" to="end1" depart="488.199756" />
    <trip id="start2Toend1_31" type="conventional"  from="start2" to="end1" depart="488.226861" />
    <trip id="start2Toend1_32" type="conventional"  from="start2" to="end1" depart="488.361459" />
    <trip id="start1Toend1_36" type="conventional"  from="start1" to="end1" depart="490.907433" />
    <trip id="start2Toend2_37" type="conventional"  from="start2" to="end2" depart="491.329395" />
    <trip id="start2Toend2_38" type="conventional"  from="start2" to="end2" depart="493.806529" />
    <trip id="start2Toend1_33" type="conventional"  from="start2" to="end1" depart="508.381309" />
    <trip id="start1Toend2_36" type="conventional"  from="start1" to="end2" depart="510.648809" />
    <trip id="start1Toend1_37" type="conventional"  from="start1" to="end1" depart="515.408522" />
    <trip id="start2Toend1_34" type="conventional"  from="start2" to="end1" depart="519.871579" />
    <trip id="start2Toend1_35" type="conventional"  from="start2" to="end1" depart="528.092771" />
    <trip id="start2Toend2_39" type="conventional"  from="start2" to="end2" depart="529.346998" />
    <trip id="start1Toend2_37" type="conventional"  from="start1" to="end2" depart="531.066582" />
    <trip id="start1Toend1_38" type="conventional"  from="start1" to="end1" depart="534.708526" />
    <trip id="start1Toend2_38" type="conventional"  from="start1" to="end2" depart="540.804537" />
    <trip id="start2Toend2_40" type="conventional"  from="start2" to="end2" depart="545.779263" />
    <trip id="start1Toend1_39" type="conventional"  from="start1" to="end1" depart="551.539122" />
    <trip id="start1Toend2_39" type="conventional"  from="start1" to="end2" depart="557.329267" />
    <trip id="start1Toend1_40" type="conventional"  from="start1" to="end1" depart="563.342661" />
    <trip id="start2Toend2_41" type="conventional"  from="start2" to="end2" depart="571.788592" />
    <trip id="start2Toend1_36" type="conventional"  from="start2" to="end1" depart="574.027050" />
    <trip id="start2Toend1_37" type="conventional"  from="start2" to="end1" depart="579.757819" />
    <trip id="start2Toend1_38" type="conventional"  from="start2" to="end1" depart="590.293166" />
    <trip id="start2Toend2_42" type="conventional"  from="start2" to="end2" depart="590.396071" />
    <trip id="start1Toend1_41" type="conventional"  from="start1" to="end1" depart="591.161273" />
    <trip id="start2Toend2_43" type="conventional"  from="start2" to="end2" depart="592.854603" />
    <trip id="start1Toend1_42" type="conventional"  from="start1" to="end1" depart="595.297087" />
    <trip id="start1Toend2_40" type="conventional"  from="start1" to="end2" depart="600.701704" />
    <trip id="start1Toend2_41" type="conventional"  from="start1" to="end2" depart="603.297156" />
    <trip id="start2Toend2_44" type="conventional"  from="start2" to="end2" depart="604.080713" />
    <trip id="start1Toend2_42" type="conventional"  from="start1" to="end2" depart="609.181685" />
    <trip id="start2Toend1_39" type="conventional"  from="start2" to="end1" depart="609.825904" />
    <trip id="start1Toend1_43" type="conventional"  from="start1" to="end1" depart="621.490907" />
    <trip id="start1Toend2_43" type="conventional"  from="start1" to="end2" depart="633.230716" />
    <trip id="start2Toend2_45" type="conventional"  from="start2" to="end2" depart="645.399272" />
    <trip id="start1Toend2_44" type="conventional"  from="start1" to="end2" depart="647.545133" />
    <trip id="start2Toend1_40" type="conventional"  from="start2" to="end1" depart="654.318141" />
    <trip id="start1Toend1_44" type="conventional"  from="start1" to="end1" depart="660.067299" />
    <trip id="start2Toend1_41" type="conventional"  from="start2" to="end1" depart="671.281453" />
    <trip id="start2Toend2_46" type="conventional"  from="start2" to="end2" depart="674.927520" />
    <trip id="start1Toend1_45" type="conventional"  from="start1" to="end1" depart="679.969853" />
    <trip id="start1Toend2_45" type="conventional"  from="start1" to="end2" depart="685.975018" />
    <trip id="start2Toend1_42" type="conventional"  from="start2" to="end1" depart="686.936640" />
    <trip id="start1Toend2_46" type="conventional"  from="start1" to="end2" depart="692.152502" />
    <trip id="start1Toend1_46" type="conventional"  from="start1" to="end1" depart="692.544893" />
    <trip id="start2Toend1_43" type="conventional"  from="start2" to="end1" depart="695.015844" />
    <trip id="start2Toend1_44" type="conventional"  from="start2" to="end1" depart="696.534926" />
    <trip id="start1Toend1_47" type="conventional"  from="start1" to="end1" depart="699.618619" />
    <trip id="start1Toend2_47" type="conventional"  from="start1" to="end2" depart="702.382064" />
    <trip id="start2Toend2_47" type="conventional"  from="start2" to="end2" depart="703.417820" />
    <trip id="start2Toend1_45" type="conventional"  from="start2" to="end1" depart="707.743653" />
    <trip id="start1Toend1_48" type="conventional"  from="start1" to="end1" depart="710.786682" />
    <trip id="start2Toend1_46" type="conventional"  from="start2" to="end1" depart="716.292672" />
    <trip id="start2Toend2_48" type="conventional"  from="start2" to="end2" depart="721.274331" />
    <trip id="start2Toend2_49" type="conventional"  from="start2" to="end2" depart="724.590506" />
    <trip id="start1Toend1_49" type="conventional"  from="start1" to="end1" depart="726.060835" />
    <trip id="start2Toend1_47" type="conventional"  from="start2" to="end1" depart="737.402719" />
    <trip id="start1Toend1_50" type="conventional"  from="start1" to="end1" depart="742.538436" />
    <trip id="start2Toend1_48" type="conventional"  from="start2" to="end1" depart="748.267740" />
    <trip id="start1Toend1_51" type="conventional"  from="start1" to="end1" depart="755.707995" />
    <trip id="start2Toend1_49" type="conventional"  from="start2" to="end1" depart="757.500777" />
    <trip id="start2Toend2_50" type="conventional"  from="start2" to="end2" depart="759.707833" />
    <trip id="start1Toend2_48" type="conventional"  from="start1" to="end2" depart="761.809591" />
    <trip id="start2Toend1_50" type="conventional"  from="start2" to="end1" depart="767.053720" />
    <trip id="start2Toend1_51" type="conventional"  from="start2" to="end1" depart="768.776627" />
    <trip id="start1Toend1_52" type="conventional"  from="start1" to="end1" depart="780.131118" />
    <trip id="start1Toend1_53" type="conventional"  from="start1" to="end1" depart="782.328340" />
    <trip id="start1Toend2_49" type="conventional"  from="start1" to="end2" depart="786.644984" />
    <trip id="start2Toend2_51" type="conventional"  from="start2" to="end2" depart="789.893008" />
    <trip id="start1Toend2_50" type="conventional"  from="start1" to="end2" depart="810.415356" />
    <trip id="start2Toend2_52" type="conventional"  from="start2" to="end2" depart="810.821129" />
    <trip id="start2Toend2_53" type="conventional"  from="start2" to="end2" depart="811.536407" />
    <trip id="start1Toend1_54" type="conventional"  from="start1" to="end1" depart="811.812852" />
    <trip id="start2Toend1_52" type="conventional"  from="start2" to="end1" depart="813.893965" />
    <trip id="start1Toend1_55" type="conventional"  from="start1" to="end1" depart="815.640915" />
    <trip id="start2Toend1_53" type="conventional"  from="start2" to="end1" depart="818.411134" />
    <trip id="start1Toend1_56" type="conventional"  from="start1" to="end1" depart="819.374384" />
    <trip id="start1Toend1_57" type="conventional"  from="start1" to="end1" depart="837.946619" />
    <trip id="start2Toend1_54" type="conventional"  from="start2" to="end1" depart="844.174650" />
    <trip id="start2Toend2_54" type="conventional"  from="start2" to="end2" depart="847.439788" />
    <trip id="start1Toend1_58" type="conventional"  from="start1" to="end1" depart="848.632054" />
    <trip id="start1Toend2_51" type="conventional"  from="start1" to="end2" depart="853.298047" />
    <trip id="start2Toend2_55" type="conventional"  from="start2" to="end2" depart="855.320582" />
    <trip id="start2Toend2_56" type="conventional"  from="start2" to="end2" depart="855.707044" />
    <trip id="start2Toend2_57" type="conventional"  from="start2" to="end2" depart="858.943956" />
    <trip id="start1Toend1_59" type="conventional"  from="start1" to="end1" depart="860.579756" />
    <trip id="start1Toend2_52" type="conventional"  from="start1" to="end2" depart="870.510631" />
    <trip id="start2Toend2_58" type="conventional"  from="start2" to="end2" depart="874.658884" />
    <trip id="start2Toend1_55" type="conventional"  from="start2" to="end1" depart="878.938682" />
    <trip id="start2Toend1_56" type="conventional"  from="start2" to="end1" depart="887.416295" />
    <trip id="start2Toend1_57" type="conventional"  from="start2" to="end1" depart="893.566884" />
    <trip id="start1Toend1_60" type="conventional"  from="start1" to="end1" depart="894.755324" />
    <trip id="start1Toend2_53" type="conventional"  from="start1" to="end2" depart="897.695108" />
    <trip id="start2Toend2_59" type="conventional"  from="start2" to="end2" depart="903.068750" />
    <trip id="start1Toend2_54" type="conventional"  from="start1" to="end2" depart="906.970175" />
    <trip id="start1Toend1_61" type="conventional"  from="start1" to="end1" depart="913.052234" />
    <trip id="start1Toend1_62" type="conventional"  from="start1" to="end1" depart="914.623289" />
    <trip id="start2Toend2_60" type="conventional"  from="start2" to="end2" depart="916.411195" />
    <trip id="start1Toend2_55" type="conventional"  from="start1" to="end2" depart="917.433130" />
    <trip id="start1Toend2_56" type="conventional"  from="start1" to="end2" depart="917.929687" />
    <trip id="start1Toend1_63" type="conventional"  from="start1" to="end1" depart="920.973743" />
    <trip id="start2Toend1_58" type="conventional"  from="start2" to="end1" depart="938.996787" />
    <trip id="start1Toend1_64" type="conventional"  from="start1" to="end1" depart="943.461028" />
    <trip id="start2Toend2_61" type="conventional"  from="start2" to="end2" depart="945.612469" />
    <trip id="start2Toend1_59" type="conventional"  from="start2" to="end1" depart="950.488657" />
    <trip id="start1Toend2_57" type="conventional"  from="start1" to="end2" depart="953.039911" />
    <trip id="start2Toend1_60" type="conventional"  from="start2" to="end1" depart="954.906651" />
    <trip id="start2Toend1_61" type="conventional"  from="start2" to="end1" depart="955.406547" />
    <trip id="start2Toend2_62" type="conventional"  from="start2" to="end2" depart="955.575200" />
    <trip id="start2Toend1_62" type="conventional"  from="start2" to="end1" depart="957.427294" />
    <trip id="start2Toend1_63" type="conventional"  from="start2" to="end1" depart="957.667032" />
    <trip id="start2Toend2_63" type="conventional"  from="start2" to="end2" depart="958.219612" />
    <trip id="start2Toend2_64" type="conventional"  from="start2" to="end2" depart="961.361808" />
    <trip id="start2Toend2_65" type="conventional"  from="start2" to="end2" depart="961.871927" />
    <trip id="start2Toend2_66" type="conventional"  from="start2" to="end2" depart="964.993848" />
    <trip id="start1Toend2_58" type="conventional"  from="start1" to="end2" depart="965.328656" />
    <trip id="start2Toend2_67" type="conventional"  from="start2" to="end2" depart="967.944094" />
    <trip id="start1Toend2_59" type="conventional"  from="start1" to="end2" depart="972.724509" />
    <trip id="start1Toend2_60" type="conventional"  from="start1" to="end2" depart="977.950991" />
    <trip id="start2Toend1_64" type="conventional"  from="start2" to="end1" depart="978.735461" />
    <trip id="start1Toend2_61" type="conventional"  from="start1" to="end2" depart="982.978404" />
    <trip id="start1Toend1_65" type="conventional"  from="start1" to="end1" depart="983.582242" />
    <trip id="start1Toend2_62" type="conventional"  from="start1" to="end2" depart="988.400251" />
    <trip id="start1Toend2_63" type="conventional"  from="start1" to="end2" depart="991.694314" />
    <trip id="start2Toend1_65" type="conventional"  from="start2" to="end1" depart="994.137597" />
    <trip id="start1Toend1_66" type="conventional"  from="start1" to="end1" depart="999.419356" />
    <trip id="start1Toend1_67" type="conventional"  from="start1" to="end1" depart="1004.829506" />
    <trip id="start2Toend1_66" type="conventional"  from="start2" to="end1" depart="1005.463344" />
    <trip id="start2Toend2_68" type="conventional"  from="start2" to="end2" depart="1009.716702" />
    <trip id="start1Toend2_64" type="conventional"  from="start1" to="end2" depart="1009.757693" />
    <trip id="start1Toend2_65" type="conventional"  from="start1" to="end2" depart="1010.265250" />
    <trip id="start2Toend1_67" type="conventional"  from="start2" to="end1" depart="1012.085163" />
    <trip id="start2Toend1_68" type="conventional"  from="start2" to="end1" depart="1021.463825" />
    <trip id="start1Toend2_66" type="conventional"  from="start1" to="end2" depart="1026.842754" />
    <trip id="start2Toend2_69" type="conventional"  from="start2" to="end2" depart="1035.891859" />
    <trip id="start2Toend2_70" type="conventional"  from="start2" to="end2" depart="1038.875152" />
    <trip id="start1Toend2_67" type="conventional"  from="start1" to="end2" depart="1040.208039" />
    <trip id="start1Toend2_68" type="conventional"  from="start1" to="end2" depart="1051.167370" />
    <trip id="start2Toend1_69" type="conventional"  from="start2" to="end1" depart="1055.891585" />
    <trip id="start2Toend2_71" type="conventional"  from="start2" to="end2" depart="1056.236515" />
    <trip id="start2Toend1_70" type="conventional"  from="start2" to="end1" depart="1058.328278" />
    <trip id="start2Toend2_72" type="conventional"  from="start2" to="end2" depart="1063.408969" />