<?xml version="1.0" encoding="UTF-8"?>

<routes>

	<route id="route0" edges="start1 end1" />
    <route id="route1" edges="start1 end2" />
    <route id="route2" edges="start2 end1" />
    <route id="route3" edges="start2 end2" />


    <vType id="conventional" vClass="passenger" tau="5.5" minGap="7.5" carFollowModel="IDM" maxSpeed="40.00"/>
    <vType id="conventional_human" vClass="passenger" tau="5.5" minGap="7.5" carFollowModel="IDM" maxSpeed="40.00" color="52,128,235"/>
    <!--vType id="conventional_human" vClass="passenger" tau="3.5" minGap="5.5" carFollowModel="IDM" maxSpeed="28.00" color="52,128,235"/-->
    <vType id="non_merging" vClass="passenger" tau="5.5" minGap="7.5" carFollowModel="IDM" maxSpeed="40.00"/>
    <vType id="merging" vClass="passenger" carFollowModel="IDM" emergencyDecel="4.5" length="5" tau="0.1" maxSpeed="40.00" color="1,1,0" accel="10.3" decel="1.7" sigma="0.0" minGap="2.0"/>
    <!--vType id="connected" vClass="passenger" tau="2.5" minGap="5.5" carFollowModel="IDM" maxSpeed="28.00" lcCooperative="0.0" color="1,1,0" lcStrategic="1.0" accel="3.0" decel="1.5" emergencyDecel="4.5" lcSpeedGain="0.3" sigma="0.0" lcKeepRight="0.3"-->
    <vType id="connected" vClass="passenger" tau="5.5" minGap="7.5" carFollowModel="IDM" maxSpeed="1.00" emergencyDecel="4.5"/>
    <vType id="routeByDistance" maxSpeed="1"/>
    <vType id="connected_pCatchupFollower" vClass="passenger" carFollowModel="IDM" emergencyDecel="4.5" length="5" tau="0.1" maxSpeed="40.00" color="1,1,0" accel="10.3" decel="1.7" sigma="0.0" minGap="2.0"/>
    <vType id="connected_pCatchup" vClass="passenger" tau="0.1" carFollowModel="IDM" emergencyDecel="4.5" maxSpeed="40.00" color="0,0.8,0.3" accel="10.3" decel="1.7" sigma="0.0" minGap="2.0"/>
    <vType id="connected_pFollower" vClass="passenger" tau="0.1" carFollowModel="IDM" maxSpeed="40.00" color="1,1,0" accel="10.3" decel="1.7" sigma="0.0"  minGap="2.0" emergencyDecel="4.5"/>
    <vType id="connected_pLeader" vClass="passenger" length="5" carFollowModel="IDM" maxSpeed="40.00" lcCooperative="0.0" color="1,1,0" lcStrategic="1.0" accel="13.0" decel="1.5" emergencyDecel="4.5" lcSpeedGain="0.3" sigma="0.0" lcKeepRight="0.3"/>

    
	
    <trip id="start1Toend1_0" type="conventional"  from="start1" to="end1" depart="0.000000" />
    <trip id="start2Toend1_0" type="conventional"  from="start2" to="end1" depart="0.000000" />
    <trip id="start1Toend1_1" type="conventional"  from="start1" to="end1" depart="0.631045" />
    <trip id="start1Toend1_2" type="conventional"  from="start1" to="end1" depart="9.055627" />
    <trip id="start1Toend1_3" type="conventional"  from="start1" to="end1" depart="9.167545" />
    <trip id="start1Toend2_0" type="conventional"  from="start1" to="end2" depart="10.000000" />
    <trip id="start2Toend2_0" type="conventional"  from="start2" to="end2" depart="10.000000" />
    <trip id="start1Toend1_4" type="conventional"  from="start1" to="end1" depart="10.375244" />
    <trip id="start1Toend1_5" type="conventional"  from="start1" to="end1" depart="11.053976" />
    <trip id="start2Toend1_1" type="conventional"  from="start2" to="end1" depart="12.787020" />
    <trip id="start1Toend1_6" type="conventional"  from="start1" to="end1" depart="14.172774" />
    <trip id="start2Toend2_1" type="conventional"  from="start2" to="end2" depart="14.600772" />
    <trip id="start2Toend1_2" type="conventional"  from="start2" to="end1" depart="16.132426" />
    <trip id="start2Toend1_3" type="conventional"  from="start2" to="end1" depart="17.485559" />
    <trip id="start1Toend1_7" type="conventional"  from="start1" to="end1" depart="21.732883" />
    <trip id="start1Toend2_1" type="conventional"  from="start1" to="end2" depart="21.811900" />
    <trip id="start2Toend1_4" type="conventional"  from="start2" to="end1" depart="22.798798" />
    <trip id="start2Toend1_5" type="conventional"  from="start2" to="end1" depart="23.113446" />
    <trip id="start1Toend1_8" type="conventional"  from="start1" to="end1" depart="23.608186" />
    <trip id="start2Toend2_2" type="conventional"  from="start2" to="end2" depart="26.248991" />
    <trip id="start2Toend2_3" type="conventional"  from="start2" to="end2" depart="28.996607" />
    <trip id="start1Toend2_2" type="conventional"  from="start1" to="end2" depart="31.355957" />
    <trip id="start1Toend2_3" type="conventional"  from="start1" to="end2" depart="32.237099" />
    <trip id="start2Toend2_4" type="conventional"  from="start2" to="end2" depart="34.660326" />
    <trip id="start1Toend1_9" type="conventional"  from="start1" to="end1" depart="34.688913" />
    <trip id="start1Toend1_10" type="conventional"  from="start1" to="end1" depart="34.762137" />
    <trip id="start1Toend1_11" type="conventional"  from="start1" to="end1" depart="35.712857" />
    <trip id="start1Toend1_12" type="conventional"  from="start1" to="end1" depart="36.654078" />
    <trip id="start2Toend1_6" type="conventional"  from="start2" to="end1" depart="37.091683" />
    <trip id="start1Toend2_4" type="conventional"  from="start1" to="end2" depart="38.220533" />
    <trip id="start1Toend2_5" type="conventional"  from="start1" to="end2" depart="38.645605" />
    <trip id="start2Toend2_5" type="conventional"  from="start2" to="end2" depart="38.733828" />
    <trip id="start2Toend2_6" type="conventional"  from="start2" to="end2" depart="39.355894" />
    <trip id="start1Toend2_6" type="conventional"  from="start1" to="end2" depart="39.706717" />
    <trip id="start1Toend2_7" type="conventional"  from="start1" to="end2" depart="42.773684" />
    <trip id="start1Toend1_13" type="conventional"  from="start1" to="end1" depart="47.435917" />
    <trip id="start1Toend2_8" type="conventional"  from="start1" to="end2" depart="48.710201" />
    <trip id="start2Toend2_7" type="conventional"  from="start2" to="end2" depart="49.775809" />
    <trip id="start1Toend1_14" type="conventional"  from="start1" to="end1" depart="50.573811" />
    <trip id="start2Toend2_8" type="conventional"  from="start2" to="end2" depart="50.778655" />
    <trip id="start1Toend1_15" type="conventional"  from="start1" to="end1" depart="51.524626" />
    <trip id="start1Toend1_16" type="conventional"  from="start1" to="end1" depart="55.506079" />
    <trip id="start2Toend1_7" type="conventional"  from="start2" to="end1" depart="55.914580" />
    <trip id="start2Toend1_8" type="conventional"  from="start2" to="end1" depart="56.593230" />
    <trip id="start2Toend2_9" type="conventional"  from="start2" to="end2" depart="57.606808" />
    <trip id="start1Toend2_9" type="conventional"  from="start1" to="end2" depart="58.293569" />
    <trip id="start2Toend1_9" type="conventional"  from="start2" to="end1" depart="59.425808" />
    <trip id="start2Toend2_10" type="conventional"  from="start2" to="end2" depart="61.717571" />
    <trip id="start2Toend2_11" type="conventional"  from="start2" to="end2" depart="61.947415" />
    <trip id="start1Toend1_17" type="conventional"  from="start1" to="end1" depart="63.539692" />
    <trip id="start2Toend2_12" type="conventional"  from="start2" to="end2" depart="63.726496" />
    <trip id="start1Toend1_18" type="conventional"  from="start1" to="end1" depart="63.815491" />
    <trip id="start2Toend1_10" type="conventional"  from="start2" to="end1" depart="64.502755" />
    <trip id="start2Toend2_13" type="conventional"  from="start2" to="end2" depart="68.253373" />
    <trip id="start1Toend2_10" type="conventional"  from="start1" to="end2" depart="72.266850" />
    <trip id="start1Toend1_19" type="conventional"  from="start1" to="end1" depart="74.610806" />
    <trip id="start1Toend2_11" type="conventional"  from="start1" to="end2" depart="74.674985" />
    <trip id="start1Toend2_12" type="conventional"  from="start1" to="end2" depart="77.292538" />
    <trip id="start1Toend1_20" type="conventional"  from="start1" to="end1" depart="77.338007" />
    <trip id="start1Toend1_21" type="conventional"  from="start1" to="end1" depart="77.740701" />
    <trip id="start1Toend1_22" type="conventional"  from="start1" to="end1" depart="78.554400" />
    <trip id="start2Toend1_11" type="conventional"  from="start2" to="end1" depart="78.729244" />
    <trip id="start1Toend2_13" type="conventional"  from="start1" to="end2" depart="78.822179" />
    <trip id="start1Toend1_23" type="conventional"  from="start1" to="end1" depart="79.541573" />
    <trip id="start1Toend1_24" type="conventional"  from="start1" to="end1" depart="79.980800" />
    <trip id="start1Toend1_25" type="conventional"  from="start1" to="end1" depart="81.600263" />
    <trip id="start1Toend2_14" type="conventional"  from="start1" to="end2" depart="82.805559" />
    <trip id="start1Toend2_15" type="conventional"  from="start1" to="end2" depart="83.443413" />
    <trip id="start2Toend2_14" type="conventional"  from="start2" to="end2" depart="83.696932" />
    <trip id="start1Toend2_16" type="conventional"  from="start1" to="end2" depart="84.903446" />
    <trip id="start1Toend1_26" type="conventional"  from="start1" to="end1" depart="85.309086" />
    <trip id="start2Toend2_15" type="conventional"  from="start2" to="end2" depart="85.645767" />
    <trip id="start1Toend1_27" type="conventional"  from="start1" to="end1" depart="87.850027" />
    <trip id="start1Toend1_28" type="conventional"  from="start1" to="end1" depart="88.764972" />
    <trip id="start2Toend2_16" type="conventional"  from="start2" to="end2" depart="93.213070" />
    <trip id="start2Toend1_12" type="conventional"  from="start2" to="end1" depart="93.436398" />
    <trip id="start1Toend1_29" type="conventional"  from="start1" to="end1" depart="93.526531" />
    <trip id="start1Toend1_30" type="conventional"  from="start1" to="end1" depart="93.778105" />
    <trip id="start2Toend2_17" type="conventional"  from="start2" to="end2" depart="95.306624" />
    <trip id="start1Toend1_31" type="conventional"  from="start1" to="end1" depart="96.294231" />
    <trip id="start1Toend1_32" type="conventional"  from="start1" to="end1" depart="99.177731" />
    <trip id="start2Toend1_13" type="conventional"  from="start2" to="end1" depart="99.673115" />
    <trip id="start1Toend2_17" type="conventional"  from="start1" to="end2" depart="101.231678" />
    <trip id="start1Toend1_33" type="conventional"  from="start1" to="end1" depart="103.334936" />
    <trip id="start2Toend2_18" type="conventional"  from="start2" to="end2" depart="106.049987" />
    <trip id="start2Toend1_14" type="conventional"  from="start2" to="end1" depart="107.570886" />
    <trip id="start1Toend2_18" type="conventional"  from="start1" to="end2" depart="108.385328" />
    <trip id="start2Toend1_15" type="conventional"  from="start2" to="end1" depart="108.755457" />
    <trip id="start2Toend2_19" type="conventional"  from="start2" to="end2" depart="111.834365" />
    <trip id="start2Toend1_16" type="conventional"  from="start2" to="end1" depart="112.385796" />
    <trip id="start2Toend2_20" type="conventional"  from="start2" to="end2" depart="112.780838" />
    <trip id="start2Toend2_21" type="conventional"  from="start2" to="end2" depart="113.014958" />
    <trip id="start1Toend1_34" type="conventional"  from="start1" to="end1" depart="113.117146" />
    <trip id="start1Toend2_19" type="conventional"  from="start1" to="end2" depart="113.380857" />
    <trip id="start2Toend1_17" type="conventional"  from="start2" to="end1" depart="114.779828" />
    <trip id="start2Toend2_22" type="conventional"  from="start2" to="end2" depart="114.938789" />
    <trip id="start2Toend2_23" type="conventional"  from="start2" to="end2" depart="115.026726" />
    <trip id="start2Toend1_18" type="conventional"  from="start2" to="end1" depart="117.005848" />
    <trip id="start2Toend1_19" type="conventional"  from="start2" to="end1" depart="118.751769" />
    <trip id="start1Toend2_20" type="conventional"  from="start1" to="end2" depart="120.126674" />
    <trip id="start1Toend2_21" type="conventional"  from="start1" to="end2" depart="121.975041" />
    <trip id="start2Toend2_24" type="conventional"  from="start2" to="end2" depart="122.414490" />
    <trip id="start2Toend2_25" type="conventional"  from="start2" to="end2" depart="122.517856" />
    <trip id="start2Toend2_26" type="conventional"  from="start2" to="end2" depart="125.903184" />
    <trip id="start2Toend2_27" type="conventional"  from="start2" to="end2" depart="127.301412" />
    <trip id="start2Toend2_28" type="conventional"  from="start2" to="end2" depart="127.504740" />
    <trip id="start2Toend2_29" type="conventional"  from="start2" to="end2" depart="127.693325" />
    <trip id="start1Toend1_35" type="conventional"  from="start1" to="end1" depart="130.063905" />
    <trip id="start1Toend2_22" type="conventional"  from="start1" to="end2" depart="130.492624" />
    <trip id="start1Toend2_23" type="conventional"  from="start1" to="end2" depart="130.719586" />
    <trip id="start1Toend1_36" type="conventional"  from="start1" to="end1" depart="131.046282" />
    <trip id="start2Toend2_30" type="conventional"  from="start2" to="end2" depart="132.471889" />
    <trip id="start1Toend1_37" type="conventional"  from="start1" to="end1" depart="132.519314" />
    <trip id="start2Toend1_20" type="conventional"  from="start2" to="end1" depart="132.941485" />
    <trip id="start2Toend2_31" type="conventional"  from="start2" to="end2" depart="133.321827" />
    <trip id="start2Toend1_21" type="conventional"  from="start2" to="end1" depart="135.370041" />
    <trip id="start2Toend1_22" type="conventional"  from="start2" to="end1" depart="136.974283" />
    <trip id="start2Toend2_32" type="conventional"  from="start2" to="end2" depart="137.296753" />
    <trip id="start1Toend2_24" type="conventional"  from="start1" to="end2" depart="138.972432" />
    <trip id="start2Toend1_23" type="conventional"  from="start2" to="end1" depart="139.167114" />
    <trip id="start2Toend2_33" type="conventional"  from="start2" to="end2" depart="139.518842" />
    <trip id="start2Toend1_24" type="conventional"  from="start2" to="end1" depart="140.818176" />
    <trip id="start2Toend1_25" type="conventional"  from="start2" to="end1" depart="141.391347" />
    <trip id="start2Toend2_34" type="conventional"  from="start2" to="end2" depart="145.157161" />
    <trip id="start2Toend1_26" type="conventional"  from="start2" to="end1" depart="145.702843" />
    <trip id="start1Toend1_38" type="conventional"  from="start1" to="end1" depart="148.047337" />
    <trip id="start1Toend2_25" type="conventional"  from="start1" to="end2" depart="149.205448" />
    <trip id="start2Toend1_27" type="conventional"  from="start2" to="end1" depart="151.406241" />
    <trip id="start1Toend1_39" type="conventional"  from="start1" to="end1" depart="151.697439" />
    <trip id="start1Toend2_26" type="conventional"  from="start1" to="end2" depart="152.911377" />
    <trip id="start2Toend2_35" type="conventional"  from="start2" to="end2" depart="153.946466" />
    <trip id="start1Toend2_27" type="conventional"  from="start1" to="end2" depart="155.954464" />
    <trip id="start2Toend2_36" type="conventional"  from="start2" to="end2" depart="157.482936" />
    <trip id="start2Toend2_37" type="conventional"  from="start2" to="end2" depart="157.631863" />
    <trip id="start2Toend2_38" type="conventional"  from="start2" to="end2" depart="158.758413" />
    <trip id="start1Toend2_28" type="conventional"  from="start1" to="end2" depart="161.246614" />
    <trip id="start1Toend2_29" type="conventional"  from="start1" to="end2" depart="166.644464" />
    <trip id="start1Toend1_40" type="conventional"  from="start1" to="end1" depart="167.497183" />
    <trip id="start1Toend2_30" type="conventional"  from="start1" to="end2" depart="170.220398" />
    <trip id="start1Toend2_31" type="conventional"  from="start1" to="end2" depart="171.485038" />
    <trip id="start2Toend2_39" type="conventional"  from="start2" to="end2" depart="173.292804" />
    <trip id="start1Toend2_32" type="conventional"  from="start1" to="end2" depart="173.397090" />
    <trip id="start1Toend1_41" type="conventional"  from="start1" to="end1" depart="173.884796" />
    <trip id="start2Toend1_28" type="conventional"  from="start2" to="end1" depart="175.159947" />
    <trip id="start2Toend2_40" type="conventional"  from="start2" to="end2" depart="175.476668" />
    <trip id="start1Toend2_33" type="conventional"  from="start1" to="end2" depart="176.052280" />
    <trip id="start2Toend1_29" type="conventional"  from="start2" to="end1" depart="176.412030" />
    <trip id="start2Toend1_30" type="conventional"  from="start2" to="end1" depart="176.463154" />
    <trip id="start1Toend1_42" type="conventional"  from="start1" to="end1" depart="180.024210" />
    <trip id="start1Toend2_34" type="conventional"  from="start1" to="end2" depart="180.449472" />
    <trip id="start2Toend2_41" type="conventional"  from="start2" to="end2" depart="182.193810" />
    <trip id="start1Toend2_35" type="conventional"  from="start1" to="end2" depart="183.251015" />
    <trip id="start1Toend2_36" type="conventional"  from="start1" to="end2" depart="184.466831" />
    <trip id="start1Toend2_37" type="conventional"  from="start1" to="end2" depart="185.768456" />
    <trip id="start1Toend1_43" type="conventional"  from="start1" to="end1" depart="185.807598" />
    <trip id="start1Toend1_44" type="conventional"  from="start1" to="end1" depart="186.989634" />
    <trip id="start1Toend1_45" type="conventional"  from="start1" to="end1" depart="187.243931" />
    <trip id="start2Toend1_31" type="conventional"  from="start2" to="end1" depart="187.520618" />
    <trip id="start2Toend1_32" type="conventional"  from="start2" to="end1" depart="189.143271" />
    <trip id="start2Toend2_42" type="conventional"  from="start2" to="end2" depart="189.359048" />
    <trip id="start1Toend2_38" type="conventional"  from="start1" to="end2" depart="189.718397" />
    <trip id="start2Toend1_33" type="conventional"  from="start2" to="end1" depart="193.998035" />
    <trip id="start2Toend2_43" type="conventional"  from="start2" to="end2" depart="194.018427" />
    <trip id="start1Toend1_46" type="conventional"  from="start1" to="end1" depart="194.134361" />
    <trip id="start2Toend2_44" type="conventional"  from="start2" to="end2" depart="196.347322" />
    <trip id="start2Toend1_34" type="conventional"  from="start2" to="end1" depart="197.368814" />
    <trip id="start1Toend1_47" type="conventional"  from="start1" to="end1" depart="197.384509" />
    <trip id="start2Toend1_35" type="conventional"  from="start2" to="end1" depart="198.116746" />
    <trip id="start1Toend1_48" type="conventional"  from="start1" to="end1" depart="198.917588" />
    <trip id="start2Toend2_45" type="conventional"  from="start2" to="end2" depart="201.914959" />
    <trip id="start2Toend2_46" type="conventional"  from="start2" to="end2" depart="202.426035" />
    <trip id="start1Toend1_49" type="conventional"  from="start1" to="end1" depart="203.899224" />
    <trip id="start2Toend2_47" type="conventional"  from="start2" to="end2" depart="205.694333" />
    <trip id="start1Toend2_39" type="conventional"  from="start1" to="end2" depart="205.749546" />
    <trip id="start1Toend1_50" type="conventional"  from="start1" to="end1" depart="210.190390" />
    <trip id="start1Toend2_40" type="conventional"  from="start1" to="end2" depart="211.053836" />
    <trip id="start1Toend1_51" type="conventional"  from="start1" to="end1" depart="212.020527" />
    <trip id="start2Toend2_48" type="conventional"  from="start2" to="end2" depart="212.078768" />
    <trip id="start1Toend1_52" type="conventional"  from="start1" to="end1" depart="219.231608" />
    <trip id="start2Toend2_49" type="conventional"  from="start2" to="end2" depart="220.434401" />
    <trip id="start1Toend2_41" type="conventional"  from="start1" to="end2" depart="221.843705" />
    <trip id="start2Toend2_50" type="conventional"  from="start2" to="end2" depart="222.598548" />
    <trip id="start2Toend2_51" type="conventional"  from="start2" to="end2" depart="223.320284" />
    <trip id="start2Toend2_52" type="conventional"  from="start2" to="end2" depart="226.511087" />
    <trip id="start2Toend1_36" type="conventional"  from="start2" to="end1" depart="235.733727" />
    <trip id="start1Toend1_53" type="conventional"  from="start1" to="end1" depart="236.076603" />
    <trip id="start2Toend2_53" type="conventional"  from="start2" to="end2" depart="242.830748" />
    <trip id="start2Toend1_37" type="conventional"  from="start2" to="end1" depart="247.980122" />
    <trip id="start1Toend1_54" type="conventional"  from="start1" to="end1" depart="249.442548" />
    <trip id="start2Toend1_38" type="conventional"  from="start2" to="end1" depart="250.530992" />
    <trip id="start1Toend2_42" type="conventional"  from="start1" to="end2" depart="250.639168" />
    <trip id="start1Toend1_55" type="conventional"  from="start1" to="end1" depart="251.457733" />
    <trip id="start1Toend2_43" type="conventional"  from="start1" to="end2" depart="251.523870" />
    <trip id="start1Toend1_56" type="conventional"  from="start1" to="end1" depart="252.060383" />
    <trip id="start2Toend1_39" type="conventional"  from="start2" to="end1" depart="252.489313" />
    <trip id="start1Toend1_57" type="conventional"  from="start1" to="end1" depart="252.525094" />
    <trip id="start2Toend1_40" type="conventional"  from="start2" to="end1" depart="252.815858" />
    <trip id="start1Toend2_44" type="conventional"  from="start1" to="end2" depart="253.048482" />
    <trip id="start2Toend1_41" type="conventional"  from="start2" to="end1" depart="254.783914" />
    <trip id="start2Toend1_42" type="conventional"  from="start2" to="end1" depart="254.941646" />
    <trip id="start2Toend1_43" type="conventional"  from="start2" to="end1" depart="256.483343" />
    <trip id="start2Toend2_54" type="conventional"  from="start2" to="end2" depart="256.621659" />
    <trip id="start1Toend1_58" type="conventional"  from="start1" to="end1" depart="256.717256" />
    <trip id="start1Toend1_59" type="conventional"  from="start1" to="end1" depart="259.344754" />
    <trip id="start2Toend2_55" type="conventional"  from="start2" to="end2" depart="260.071917" />
    <trip id="start2Toend2_56" type="conventional"  from="start2" to="end2" depart="260.938410" />
    <trip id="start2Toend2_57" type="conventional"  from="start2" to="end2" depart="264.493317" />
    <trip id="start1Toend1_60" type="conventional"  from="start1" to="end1" depart="264.655908" />
    <trip id="start2Toend2_58" type="conventional"  from="start2" to="end2" depart="265.491484" />
    <trip id="start2Toend2_59" type="conventional"  from="start2" to="end2" depart="267.667634" />
    <trip id="start1Toend2_45" type="conventional"  from="start1" to="end2" depart="268.874393" />
    <trip id="start1Toend1_61" type="conventional"  from="start1" to="end1" depart="269.915110" />
    <trip id="start2Toend2_60" type="conventional"  from="start2" to="end2" depart="269.949844" />
    <trip id="start2Toend1_44" type="conventional"  from="start2" to="end1" depart="270.038253" />
    <trip id="start1Toend2_46" type="conventional"  from="start1" to="end2" depart="270.849366" />
    <trip id="start1Toend2_47" type="conventional"  from="start1" to="end2" depart="271.467026" />
    <trip id="start2Toend1_45" type="conventional"  from="start2" to="end1" depart="274.830984" />
    <trip id="start1Toend1_62" type="conventional"  from="start1" to="end1" depart="276.464234" />
    <trip id="start1Toend2_48" type="conventional"  from="start1" to="end2" depart="278.769656" />
    <trip id="start1Toend2_49" type="conventional"  from="start1" to="end2" depart="281.283538" />
    <trip id="start1Toend2_50" type="conventional"  from="start1" to="end2" depart="282.195352" />
    <trip id="start2Toend2_61" type="conventional"  from="start2" to="end2" depart="282.315959" />
    <trip id="start2Toend2_62" type="conventional"  from="start2" to="end2" depart="282.489954" />
    <trip id="start1Toend2_51" type="conventional"  from="start1" to="end2" depart="282.930346" />
    <trip id="start2Toend1_46" type="conventional"  from="start2" to="end1" depart="285.292014" />
    <trip id="start1Toend2_52" type="conventional"  from="start1" to="end2" depart="286.857772" />
    <trip id="start2Toend2_63" type="conventional"  from="start2" to="end2" depart="287.798965" />
    <trip id="start2Toend1_47" type="conventional"  from="start2" to="end1" depart="289.072074" />
    <trip id="start1Toend2_53" type="conventional"  from="start1" to="end2" depart="289.117281" />
    <trip id="start1Toend1_63" type="conventional"  from="start1" to="end1" depart="291.252784" />
    <trip id="start1Toend1_64" type="conventional"  from="start1" to="end1" depart="293.139888" />
    <trip id="start1Toend2_54" type="conventional"  from="start1" to="end2" depart="298.438669" />
    <trip id="start2Toend2_64" type="conventional"  from="start2" to="end2" depart="298.698642" />
    <trip id="start1Toend1_65" type="conventional"  from="start1" to="end1" depart="298.804971" />
    <trip id="start2Toend1_48" type="conventional"  from="start2" to="end1" depart="299.047712" />
    <trip id="start2Toend2_65" type="conventional"  from="start2" to="end2" depart="300.068676" />
    <trip id="start2Toend1_49" type="conventional"  from="start2" to="end1" depart="300.758364" />
    <trip id="start1Toend2_55" type="conventional"  from="start1" to="end2" depart="301.394411" />
    <trip id="start1Toend2_56" type="conventional"  from="start1" to="end2" depart="302.478018" />
    <trip id="start2Toend1_50" type="conventional"  from="start2" to="end1" depart="302.806409" />
    <trip id="start2Toend1_51" type="conventional"  from="start2" to="end1" depart="302.842632" />
    <trip id="start2Toend1_52" type="conventional"  from="start2" to="end1" depart="303.059214" />
    <trip id="start2Toend2_66" type="conventional"  from="start2" to="end2" depart="303.468976" />
    <trip id="start2Toend2_67" type="conventional"  from="start2" to="end2" depart="304.051589" />
    <trip id="start1Toend1_66" type="conventional"  from="start1" to="end1" depart="305.094555" />
    <trip id="start1Toend2_57" type="conventional"  from="start1" to="end2" depart="305.385951" />
    <trip id="start1Toend1_67" type="conventional"  from="start1" to="end1" depart="306.828681" />
    <trip id="start1Toend1_68" type="conventional"  from="start1" to="end1" depart="307.304449" />
    <trip id="start2Toend2_68" type="conventional"  from="start2" to="end2" depart="307.367093" />
    <trip id="start2Toend2_69" type="conventional"  from="start2" to="end2" depart="311.215165" />
    <trip id="start1Toend1_69" type="conventional"  from="start1" to="end1" depart="311.840646" />
    <trip id="start2Toend2_70" type="conventional"  from="start2" to="end2" depart="312.313608" />
    <trip id="start2Toend1_53" type="conventional"  from="start2" to="end1" depart="314.782939" />
    <trip id="start2Toend1_54" type="conventional"  from="start2" to="end1" depart="316.784812" />
    <trip id="start2Toend2_71" type="conventional"  from="start2" to="end2" depart="318.398126" />
    <trip id="start2Toend1_55" type="conventional"  from="start2" to="end1" depart="318.523277" />
    <trip id="start2Toend1_56" type="conventional"  from="start2" to="end1" depart="320.909392" />
    <trip id="start2Toend2_72" type="conventional"  from="start2" to="end2" depart="321.227646" />
    <trip id="start1Toend1_70" type="conventional"  from="start1" to="end1" depart="321.615117" />
    <trip id="start2Toend1_57" type="conventional"  from="start2" to="end1" depart="323.028200" />
    <trip id="start2Toend1_58" type="conventional"  from="start2" to="end1" depart="323.748859" />
    <trip id="start1Toend1_71" type="conventional"  from="start1" to="end1" depart="325.219334" />
    <trip id="start2Toend1_59" type="conventional"  from="start2" to="end1" depart="325.904574" />
    <trip id="start1Toend2_58" type="conventional"  from="start1" to="end2" depart="326.426684" />
    <trip id="start1Toend2_59" type="conventional"  from="start1" to="end2" depart="327.408746" />
    <trip id="start1Toend2_60" type="conventional"  from="start1" to="end2" depart="328.854023" />
    <trip id="start1Toend1_72" type="conventional"  from="start1" to="end1" depart="331.256357" />
    <trip id="start1Toend1_73" type="conventional"  from="start1" to="end1" depart="331.788373" />
    <trip id="start1Toend1_74" type="conventional"  from="start1" to="end1" depart="332.064900" />
    <trip id="start2Toend1_60" type="conventional"  from="start2" to="end1" depart="332.358310" />
    <trip id="start1Toend2_61" type="conventional"  from="start1" to="end2" depart="332.570748" />
    <trip id="start1Toend2_62" type="conventional"  from="start1" to="end2" depart="333.357863" />
    <trip id="start2Toend2_73" type="conventional"  from="start2" to="end2" depart="333.378703" />
    <trip id="start2Toend1_61" type="conventional"  from="start2" to="end1" depart="333.419916" />
    <trip id="start1Toend2_63" type="conventional"  from="start1" to="end2" depart="334.211545" />
    <trip id="start1Toend1_75" type="conventional"  from="start1" to="end1" depart="341.529041" />
    <trip id="start2Toend1_62" type="conventional"  from="start2" to="end1" depart="341.808247" />
    <trip id="start2Toend1_63" type="conventional"  from="start2" to="end1" depart="342.353595" />
    <trip id="start1Toend2_64" type="conventional"  from="start1" to="end2" depart="343.320175" />
    <trip id="start1Toend1_76" type="conventional"  from="start1" to="end1" depart="347.498466" />
    <trip id="start1Toend2_65" type="conventional"  from="start1" to="end2" depart="348.207063" />
    <trip id="start1Toend1_77" type="conventional"  from="start1" to="end1" depart="351.633834" />