<?xml version="1.0" encoding="UTF-8"?>

<routes>

	<route id="route0" edges="start1 end1" />
    <route id="route1" edges="start1 end2" />
    <route id="route2" edges="start2 end1" />
    <route id="route3" edges="start2 end2" />


    <vType id="conventional" vClass="passenger" tau="5.5" minGap="7.5" carFollowModel="IDM" maxSpeed="40.00"/>
    <vType id="conventional_human" vClass="passenger" tau="5.5" minGap="7.5" carFollowModel="IDM" maxSpeed="40.00" color="52,128,235"/>
    <!--vType id="conventional_human" vClass="passenger" tau="3.5" minGap="5.5" carFollowModel="IDM" maxSpeed="28.00" color="52,128,235"/-->
    <vType id="non_merging" vClass="passenger" tau="5.5" minGap="7.5" carFollowModel="IDM" maxSpeed="40.00"/>
    <vType id="merging" vClass="passenger" carFollowModel="IDM" emergencyDecel="4.5" length="5" tau="0.1" maxSpeed="40.00" color="1,1,0" accel="10.3" decel="1.7" sigma="0.0" minGap="2.0"/>
    <!--vType id="connected" vClass="passenger" tau="2.5" minGap="5.5" carFollowModel="IDM" maxSpeed="28.00" lcCooperative="0.0" color="1,1,0" lcStrategic="1.0" accel="3.0" decel="1.5" emergencyDecel="4.5" lcSpeedGain="0.3" sigma="0.0" lcKeepRight="0.3"-->
    <vType id="connected" vClass="passenger" tau="5.5" minGap="7.5" carFollowModel="IDM" maxSpeed="1.00" emergencyDecel="4.5"/>
    <vType id="routeByDistance" maxSpeed="1"/>
    <vType id="connected_pCatchupFollower" vClass="passenger" carFollowModel="IDM" emergencyDecel="4.5" length="5" tau="0.1" maxSpeed="40.00" color="1,1,0" accel="10.3" decel="1.7" sigma="0.0" minGap="2.0"/>
    <vType id="connected_pCatchup" vClass="passenger" tau="0.1" carFollowModel="IDM" emergencyDecel="4.5" maxSpeed="40.00" color="0,0.8,0.3" accel="10.3" decel="1.7" sigma="0.0" minGap="2.0"/>
    <vType id="connected_pFollower" vClass="passenger" tau="0.1" carFollowModel="IDM" maxSpeed="40.00" color="1,1,0" accel="10.3" decel="1.7" sigma="0.0"  minGap="2.0" emergencyDecel="4.5"/>
    <vType id="connected_pLeader" vClass="passenger" length="5" carFollowModel="IDM" maxSpeed="40.00" lcCooperative="0.0" color="1,1,0" lcStrategic="1.0" accel="13.0" decel="1.5" emergencyDecel="4.5" lcSpeedGain="0.3" sigma="0.0" lcKeepRight="0.3"/>

    
	
    <trip id="start1Toend1_0" type="conventional"  from="start1" to="end1" depart="0.000000" />
    <trip id="start2Toend1_0" type="conventional"  from="start2" to="end1" depart="0.000000" />
    <trip id="start1Toend1_1" type="conventional"  from="start1" to="end1" depart="4.101232" />
    <trip id="start1Toend2_0" type="conventional"  from="start1" to="end2" depart="10.000000" />
    <trip id="start2Toend2_0" type="conventional"  from="start2" to="end2" depart="10.000000" />
    <trip id="start2Toend1_1" type="conventional"  from="start2" to="end1" depart="14.170897" />
    <trip id="start1Toend2_1" type="conventional"  from="start1" to="end2" depart="102.522276" />
    <trip id="start1Toend1_2" type="conventional"  from="start1" to="end1" depart="117.762450" />
    <trip id="start2Toend1_2" type="conventional"  from="start2" to="end1" depart="120.376429" />
    <trip id="start2Toend2_1" type="conventional"  from="start2" to="end2" depart="170.063270" />
    <trip id="start1Toend2_2" type="conventional"  from="start1" to="end2" depart="186.016287" />
    <trip id="start1Toend2_3" type="conventional"  from="start1" to="end2" depart="196.659721" />
    <trip id="start2Toend1_3" type="conventional"  from="start2" to="end1" depart="202.632685" />
    <trip id="start1Toend2_4" type="conventional"  from="start1" to="end2" depart="204.913497" />
    <trip id="start2Toend2_2" type="conventional"  from="start2" to="end2" depart="249.346762" />
    <trip id="start2Toend1_4" type="conventional"  from="start2" to="end1" depart="268.432505" />
    <trip id="start2Toend1_5" type="conventional"  from="start2" to="end1" depart="323.509117" />
    <trip id="start2Toend2_3" type="conventional"  from="start2" to="end2" depart="329.944551" />
    <trip id="start1Toend1_3" type="conventional"  from="start1" to="end1" depart="340.126125" />
    <trip id="start1Toend1_4" type="conventional"  from="start1" to="end1" depart="344.615438" />
    <trip id="start2Toend1_6" type="conventional"  from="start2" to="end1" depart="354.608973" />
    <trip id="start2Toend1_7" type="conventional"  from="start2" to="end1" depart="361.445272" />
    <trip id="start2Toend1_8" type="conventional"  from="start2" to="end1" depart="364.378258" />
    <trip id="start1Toend2_5" type="conventional"  from="start1" to="end2" depart="390.340382" />
    <trip id="start2Toend2_4" type="conventional"  from="start2" to="end2" depart="402.278303" />
    <trip id="start1Toend1_5" type="conventional"  from="start1" to="end1" depart="413.190072" />
    <trip id="start1Toend2_6" type="conventional"  from="start1" to="end2" depart="414.625186" />
    <trip id="start2Toend1_9" type="conventional"  from="start2" to="end1" depart="437.126608" />
    <trip id="start2Toend1_10" type="conventional"  from="start2" to="end1" depart="449.689066" />
    <trip id="start2Toend2_5" type="conventional"  from="start2" to="end2" depart="455.105048" />
    <trip id="start2Toend2_6" type="conventional"  from="start2" to="end2" depart="468.731538" />
    <trip id="start2Toend2_7" type="conventional"  from="start2" to="end2" depart="536.031113" />
    <trip id="start2Toend1_11" type="conventional"  from="start2" to="end1" depart="543.953190" />
    <trip id="start2Toend2_8" type="conventional"  from="start2" to="end2" depart="548.140085" />
    <trip id="start2Toend1_12" type="conventional"  from="start2" to="end1" depart="551.653488" />
    <trip id="start1Toend2_7" type="conventional"  from="start1" to="end2" depart="577.815321" />
    <trip id="start2Toend1_13" type="conventional"  from="start2" to="end1" depart="595.955679" />
    <trip id="start1Toend2_8" type="conventional"  from="start1" to="end2" depart="612.029468" />
    <trip id="start2Toend1_14" type="conventional"  from="start2" to="end1" depart="617.425110" />
    <trip id="start1Toend1_6" type="conventional"  from="start1" to="end1" depart="617.632782" />
    <trip id="start1Toend2_9" type="conventional"  from="start1" to="end2" depart="621.560559" />
    <trip id="start1Toend2_10" type="conventional"  from="start1" to="end2" depart="631.450160" />
    <trip id="start1Toend2_11" type="conventional"  from="start1" to="end2" depart="673.425177" />
    <trip id="start2Toend2_9" type="conventional"  from="start2" to="end2" depart="676.471740" />
    <trip id="start1Toend1_7" type="conventional"  from="start1" to="end1" depart="677.624943" />
    <trip id="start2Toend2_10" type="conventional"  from="start2" to="end2" depart="686.297766" />
    <trip id="start1Toend1_8" type="conventional"  from="start1" to="end1" depart="686.920755" />
    <trip id="start2Toend2_11" type="conventional"  from="start2" to="end2" depart="690.323532" />
    <trip id="start2Toend1_15" type="conventional"  from="start2" to="end1" depart="724.041656" />
    <trip id="start2Toend1_16" type="conventional"  from="start2" to="end1" depart="737.351882" />
    <trip id="start2Toend1_17" type="conventional"  from="start2" to="end1" depart="751.525076" />
    <trip id="start2Toend2_12" type="conventional"  from="start2" to="end2" depart="765.537629" />
    <trip id="start1Toend2_12" type="conventional"  from="start1" to="end2" depart="776.100927" />
    <trip id="start2Toend1_18" type="conventional"  from="start2" to="end1" depart="777.907135" />
    <trip id="start2Toend2_13" type="conventional"  from="start2" to="end2" depart="791.838597" />
    <trip id="start2Toend2_14" type="conventional"  from="start2" to="end2" depart="803.035630" />
    <trip id="start2Toend1_19" type="conventional"  from="start2" to="end1" depart="803.711121" />
    <trip id="start1Toend2_13" type="conventional"  from="start1" to="end2" depart="829.863227" />
    <trip id="start2Toend1_20" type="conventional"  from="start2" to="end1" depart="832.169151" />
    <trip id="start2Toend1_21" type="conventional"  from="start2" to="end1" depart="834.262808" />
    <trip id="start2Toend2_15" type="conventional"  from="start2" to="end2" depart="874.069661" />
    <trip id="start1Toend1_9" type="conventional"  from="start1" to="end1" depart="876.538689" />
    <trip id="start1Toend1_10" type="conventional"  from="start1" to="end1" depart="898.228757" />
    <trip id="start2Toend2_16" type="conventional"  from="start2" to="end2" depart="918.285446" />
    <trip id="start2Toend2_17" type="conventional"  from="start2" to="end2" depart="918.663840" />
    <trip id="start2Toend2_18" type="conventional"  from="start2" to="end2" depart="923.632369" />
    <trip id="start1Toend2_14" type="conventional"  from="start1" to="end2" depart="931.942289" />
    <trip id="start1Toend2_15" type="conventional"  from="start1" to="end2" depart="933.419880" />
    <trip id="start1Toend2_16" type="conventional"  from="start1" to="end2" depart="940.596260" />
    <trip id="start2Toend1_22" type="conventional"  from="start2" to="end1" depart="942.201054" />
    <trip id="start1Toend1_11" type="conventional"  from="start1" to="end1" depart="965.122088" />
    <trip id="start1Toend1_12" type="conventional"  from="start1" to="end1" depart="998.332165" />
    <trip id="start1Toend2_17" type="conventional"  from="start1" to="end2" depart="1009.884733" />
    <trip id="start1Toend1_13" type="conventional"  from="start1" to="end1" depart="1016.768449" />
    <trip id="start1Toend1_14" type="conventional"  from="start1" to="end1" depart="1018.808672" />
    <trip id="start2Toend1_23" type="conventional"  from="start2" to="end1" depart="1038.548660" />
    <trip id="start1Toend1_15" type="conventional"  from="start1" to="end1" depart="1047.098759" />
    <trip id="start2Toend1_24" type="conventional"  from="start2" to="end1" depart="1047.370889" />
    <trip id="start1Toend2_18" type="conventional"  from="start1" to="end2" depart="1049.170175" />
    <trip id="start2Toend2_19" type="conventional"  from="start2" to="end2" depart="1066.137743" />
    <trip id="start2Toend2_20" type="conventional"  from="start2" to="end2" depart="1075.056619" />
    <trip id="start2Toend1_25" type="conventional"  from="start2" to="end1" depart="1084.068661" />
    <trip id="start1Toend2_19" type="conventional"  from="start1" to="end2" depart="1085.302799" />
    <trip id="start1Toend2_20" type="conventional"  from="start1" to="end2" depart="1099.288475" />
    <trip id="start2Toend2_21" type="conventional"  from="start2" to="end2" depart="1119.458258" />
    <trip id="start2Toend2_22" type="conventional"  from="start2" to="end2" depart="1119.984430" />
    <trip id="start2Toend2_23" type="conventional"  from="start2" to="end2" depart="1123.109145" />
    <trip id="start1Toend1_16" type="conventional"  from="start1" to="end1" depart="1127.246558" />
    <trip id="start1Toend1_17" type="conventional"  from="start1" to="end1" depart="1137.067064" />
    <trip id="start2Toend1_26" type="conventional"  from="start2" to="end1" depart="1158.791829" />
    <trip id="start2Toend2_24" type="conventional"  from="start2" to="end2" depart="1170.468763" />
    <trip id="start2Toend1_27" type="conventional"  from="start2" to="end1" depart="1171.108041" />
    <trip id="start1Toend2_21" type="conventional"  from="start1" to="end2" depart="1183.807609" />
    <trip id="start2Toend1_28" type="conventional"  from="start2" to="end1" depart="1192.645271" />
    <trip id="start1Toend1_18" type="conventional"  from="start1" to="end1" depart="1196.559430" />
    <trip id="start1Toend2_22" type="conventional"  from="start1" to="end2" depart="1204.439564" />
    <trip id="start2Toend1_29" type="conventional"  from="start2" to="end1" depart="1235.948847" />
    <trip id="start2Toend2_25" type="conventional"  from="start2" to="end2" depart="1244.709295" />
    <trip id="start2Toend2_26" type="conventional"  from="start2" to="end2" depart="1245.036939" />
    <trip id="start1Toend1_19" type="conventional"  from="start1" to="end1" depart="1252.396696" />
    <trip id="start1Toend1_20" type="conventional"  from="start1" to="end1" depart="1257.711928" />
    <trip id="start1Toend1_21" type="conventional"  from="start1" to="end1" depart="1269.139577" />
    <trip id="start1Toend1_22" type="conventional"  from="start1" to="end1" depart="1297.901537" />
    <trip id="start1Toend2_23" type="conventional"  from="start1" to="end2" depart="1304.495959" />
    <trip id="start1Toend2_24" type="conventional"  from="start1" to="end2" depart="1311.277670" />
    <trip id="start1Toend2_25" type="conventional"  from="start1" to="end2" depart="1321.862401" />
    <trip id="start1Toend1_23" type="conventional"  from="start1" to="end1" depart="1336.995470" />
    <trip id="start1Toend1_24" type="conventional"  from="start1" to="end1" depart="1338.696662" />
    <trip id="start2Toend1_30" type="conventional"  from="start2" to="end1" depart="1363.584127" />
    <trip id="start1Toend1_25" type="conventional"  from="start1" to="end1" depart="1382.828450" />
    <trip id="start1Toend2_26" type="conventional"  from="start1" to="end2" depart="1406.025019" />
    <trip id="start1Toend2_27" type="conventional"  from="start1" to="end2" depart="1408.235249" />
    <trip id="start2Toend1_31" type="conventional"  from="start2" to="end1" depart="1410.830684" />
    <trip id="start1Toend1_26" type="conventional"  from="start1" to="end1" depart="1418.406614" />
    <trip id="start1Toend2_28" type="conventional"  from="start1" to="end2" depart="1424.273885" />
    <trip id="start2Toend1_32" type="conventional"  from="start2" to="end1" depart="1449.173289" />
    <trip id="start2Toend2_27" type="conventional"  from="start2" to="end2" depart="1480.686046" />
    <trip id="start2Toend2_28" type="conventional"  from="start2" to="end2" depart="1480.801306" />
    <trip id="start2Toend1_33" type="conventional"  from="start2" to="end1" depart="1511.546941" />
    <trip id="start2Toend2_29" type="conventional"  from="start2" to="end2" depart="1531.683761" />
    <trip id="start1Toend1_27" type="conventional"  from="start1" to="end1" depart="1533.713992" />
    <trip id="start2Toend2_30" type="conventional"  from="start2" to="end2" depart="1554.835947" />
    <trip id="start2Toend2_31" type="conventional"  from="start2" to="end2" depart="1561.311788" />
    <trip id="start1Toend2_29" type="conventional"  from="start1" to="end2" depart="1596.772301" />
    <trip id="start2Toend1_34" type="conventional"  from="start2" to="end1" depart="1604.995679" />
    <trip id="start1Toend1_28" type="conventional"  from="start1" to="end1" depart="1614.751279" />
    <trip id="start2Toend1_35" type="conventional"  from="start2" to="end1" depart="1633.912475" />
    <trip id="start2Toend2_32" type="conventional"  from="start2" to="end2" depart="1662.172663" />
    <trip id="start2Toend2_33" type="conventional"  from="start2" to="end2" depart="1672.893385" />
    <trip id="start2Toend1_36" type="conventional"  from="start2" to="end1" depart="1675.389743" />
    <trip id="start1Toend2_30" type="conventional"  from="start1" to="end2" depart="1706.676148" />
    <trip id="start1Toend1_29" type="conventional"  from="start1" to="end1" depart="1708.808081" />
    <trip id="start2Toend2_34" type="conventional"  from="start2" to="end2" depart="1711.931403" />
    <trip id="start2Toend2_35" type="conventional"  from="start2" to="end2" depart="1736.975405" />
    <trip id="start1Toend2_31" type="conventional"  from="start1" to="end2" depart="1737.383568" />
    <trip id="start2Toend1_37" type="conventional"  from="start2" to="end1" depart="1741.627606" />
    <trip id="start1Toend2_32" type="conventional"  from="start1" to="end2" depart="1747.344133" />
    <trip id="start1Toend1_30" type="conventional"  from="start1" to="end1" depart="1773.217450" />
    <trip id="start1Toend1_31" type="conventional"  from="start1" to="end1" depart="1782.515478" />
    <trip id="start2Toend1_38" type="conventional"  from="start2" to="end1" depart="1802.297944" />
    <trip id="start2Toend1_39" type="conventional"  from="start2" to="end1" depart="1803.505323" />
    <trip id="start1Toend2_33" type="conventional"  from="start1" to="end2" depart="1815.554142" />
    <trip id="start1Toend1_32" type="conventional"  from="start1" to="end1" depart="1827.578786" />
    <trip id="start1Toend2_34" type="conventional"  from="start1" to="end2" depart="1838.955156" />
    <trip id="start1Toend1_33" type="conventional"  from="start1" to="end1" depart="1839.488363" />
    <trip id="start1Toend1_34" type="conventional"  from="start1" to="end1" depart="1844.032351" />
    <trip id="start1Toend1_35" type="conventional"  from="start1" to="end1" depart="1849.848874" />
    <trip id="start2Toend2_36" type="conventional"  from="start2" to="end2" depart="1858.778721" />
    <trip id="start2Toend2_37" type="conventional"  from="start2" to="end2" depart="1863.563171" />
    <trip id="start2Toend1_40" type="conventional"  from="start2" to="end1" depart="1879.678888" />
    <trip id="start2Toend1_41" type="conventional"  from="start2" to="end1" depart="1900.831166" />
    <trip id="start2Toend1_42" type="conventional"  from="start2" to="end1" depart="1903.261197" />
    <trip id="start2Toend2_38" type="conventional"  from="start2" to="end2" depart="1905.980036" />
    <trip id="start1Toend1_36" type="conventional"  from="start1" to="end1" depart="1912.884611" />
    <trip id="start1Toend1_37" type="conventional"  from="start1" to="end1" depart="1916.703455" />
    <trip id="start2Toend1_43" type="conventional"  from="start2" to="end1" depart="1919.819420" />
    <trip id="start1Toend1_38" type="conventional"  from="start1" to="end1" depart="1926.515253" />
    <trip id="start1Toend1_39" type="conventional"  from="start1" to="end1" depart="1929.295458" />
    <trip id="start1Toend2_35" type="conventional"  from="start1" to="end2" depart="1933.028085" />
    <trip id="start1Toend1_40" type="conventional"  from="start1" to="end1" depart="1945.399777" />
    <trip id="start2Toend2_39" type="conventional"  from="start2" to="end2" depart="1949.602502" />
    <trip id="start1Toend2_36" type="conventional"  from="start1" to="end2" depart="1961.102747" />
    <trip id="start1Toend2_37" type="conventional"  from="start1" to="end2" depart="1967.226496" />
    <trip id="start2Toend2_40" type="conventional"  from="start2" to="end2" depart="1976.473956" />
    <trip id="start1Toend1_41" type="conventional"  from="start1" to="end1" depart="2001.665260" />
    <trip id="start2Toend1_44" type="conventional"  from="start2" to="end1" depart="2020.334512" />
    <trip id="start1Toend2_38" type="conventional"  from="start1" to="end2" depart="2021.690963" />
    <trip id="start2Toend2_41" type="conventional"  from="start2" to="end2" depart="2026.385916" />
    <trip id="start1Toend2_39" type="conventional"  from="start1" to="end2" depart="2034.436009" />
    <trip id="start2Toend2_42" type="conventional"  from="start2" to="end2" depart="2042.362384" />
    <trip id="start1Toend2_40" type="conventional"  from="start1" to="end2" depart="2113.476372" />
    <trip id="start2Toend2_43" type="conventional"  from="start2" to="end2" depart="2119.985376" />
    <trip id="start1Toend1_42" type="conventional"  from="start1" to="end1" depart="2123.005717" />
    <trip id="start1Toend2_41" type="conventional"  from="start1" to="end2" depart="2134.515895" />
    <trip id="start2Toend1_45" type="conventional"  from="start2" to="end1" depart="2135.245705" />
    <trip id="start2Toend2_44" type="conventional"  from="start2" to="end2" depart="2138.705484" />
    <trip id="start2Toend2_45" type="conventional"  from="start2" to="end2" depart="2169.907039" />
    <trip id="start2Toend2_46" type="conventional"  from="start2" to="end2" depart="2171.696964" />
    <trip id="start2Toend1_46" type="conventional"  from="start2" to="end1" depart="2174.935254" />
    <trip id="start1Toend2_42" type="conventional"  from="start1" to="end2" depart="2193.012894" />
    <trip id="start1Toend1_43" type="conventional"  from="start1" to="end1" depart="2196.935818" />
    <trip id="start1Toend1_44" type="conventional"  from="start1" to="end1" depart="2197.892004" />
    <trip id="start1Toend2_43" type="conventional"  from="start1" to="end2" depart="2207.585814" />
    <trip id="start2Toend2_47" type="conventional"  from="start2" to="end2" depart="2223.621534" />
    <trip id="start1Toend1_45" type="conventional"  from="start1" to="end1" depart="2231.680292" />
    <trip id="start1Toend2_44" type="conventional"  from="start1" to="end2" depart="2235.187989" />
    <trip id="start1Toend2_45" type="conventional"  from="start1" to="end2" depart="2237.562906" />
    <trip id="start1Toend1_46" type="conventional"  from="start1" to="end1" depart="2242.246433" />
    <trip id="start1Toend2_46" type="conventional"  from="start1" to="end2" depart="2259.497679" />
    <trip id="start2Toend1_47" type="conventional"  from="start2" to="end1" depart="2287.734646" />
    <trip id="start1Toend1_47" type="conventional"  from="start1" to="end1" depart="2294.381371" />
    <trip id="start1Toend2_47" type="conventional"  from="start1" to="end2" depart="2294.669157" />
    <trip id="start2Toend1_48" type="conventional"  from="start2" to="end1" depart="2302.396171" />
    <trip id="start2Toend2_48" type="conventional"  from="start2" to="end2" depart="2312.824964" />
    <trip id="start2Toend1_49" type="conventional"  from="start2" to="end1" depart="2321.516387" />
    <trip id="start2Toend1_50" type="conventional"  from="start2" to="end1" depart="2322.127410" />
    <trip id="start2Toend2_49" type="conventional"  from="start2" to="end2" depart="2334.160582" />
    <trip id="start1Toend1_48" type="conventional"  from="start1" to="end1" depart="2359.841323" />
    <trip id="start2Toend2_50" type="conventional"  from="start2" to="end2" depart="2377.316427" />
    <trip id="start2Toend2_51" type="conventional"  from="start2" to="end2" depart="2380.620621" />
    <trip id="start2Toend2_52" type="conventional"  from="start2" to="end2" depart="2388.182688" />
    <trip id="start1Toend2_48" type="conventional"  from="start1" to="end2" depart="2390.599805" />
    <trip id="start2Toend1_51" type="conventional"  from="start2" to="end1" depart="2422.648891" />
    <trip id="start2Toend2_53" type="conventional"  from="start2" to="end2" depart="2427.457819" />
    <trip id="start1Toend1_49" type="conventional"  from="start1" to="end1" depart="2441.801166" />
    <trip id="start2Toend2_54" type="conventional"  from="start2" to="end2" depart="2444.625373" />
    <trip id="start1Toend2_49" type="conventional"  from="start1" to="end2" depart="2448.733589" />
    <trip id="start1Toend1_50" type="conventional"  from="start1" to="end1" depart="2461.113701" />
    <trip id="start2Toend1_52" type="conventional"  from="start2" to="end1" depart="2461.150861" />
    <trip id="start1Toend2_50" type="conventional"  from="start1" to="end2" depart="2463.694483" />
    <trip id="start1Toend2_51" type="conventional"  from="start1" to="end2" depart="2469.468868" />
    <trip id="start1Toend2_52" type="conventional"  from="start1" to="end2" depart="2483.778023" />
    <trip id="start1Toend2_53" type="conventional"  from="start1" to="end2" depart="2486.087821" />
    <trip id="start2Toend1_53" type="conventional"  from="start2" to="end1" depart="2499.112382" />
    <trip id="start2Toend1_54" type="conventional"  from="start2" to="end1" depart="2504.896078" />
    <trip id="start1Toend2_54" type="conventional"  from="start1" to="end2" depart="2508.043512" />
    <trip id="start2Toend2_55" type="conventional"  from="start2" to="end2" depart="2514.655557" />
    <trip id="start2Toend2_56" type="conventional"  from="start2" to="end2" depart="2514.674988" />
    <trip id="start2Toend1_55" type="conventional"  from="start2" to="end1" depart="2521.353182" />
    <trip id="start1Toend2_55" type="conventional"  from="start1" to="end2" depart="2522.659972" />
    <trip id="start2Toend2_57" type="conventional"  from="start2" to="end2" depart="2523.864979" />
    <trip id="start1Toend2_56" type="conventional"  from="start1" to="end2" depart="2539.177188" />
    <trip id="start1Toend2_57" type="conventional"  from="start1" to="end2" depart="2554.045861" />
    <trip id="start2Toend1_56" type="conventional"  from="start2" to="end1" depart="2554.098835" />
    <trip id="start1Toend2_58" type="conventional"  from="start1" to="end2" depart="2566.993386" />
    <trip id="start2Toend1_57" type="conventional"  from="start2" to="end1" depart="2576.290002" />
    <trip id="start1Toend1_51" type="conventional"  from="start1" to="end1" depart="2583.146793" />
    <trip id="start1Toend1_52" type="conventional"  from="start1" to="end1" depart="2608.594578" />
    <trip id="start1Toend1_53" type="conventional"  from="start1" to="end1" depart="2617.228448" />
    <trip id="start2Toend1_58" type="conventional"  from="start2" to="end1" depart="2619.663972" />
    <trip id="start2Toend2_58" type="conventional"  from="start2" to="end2" depart="2623.509220" />
    <trip id="start1Toend1_54" type="conventional"  from="start1" to="end1" depart="2646.644284" />
    <trip id="start2Toend1_59" type="conventional"  from="start2" to="end1" depart="2675.610207" />
    <trip id="start2Toend1_60" type="conventional"  from="start2" to="end1" depart="2700.692220" />
    <trip id="start2Toend1_61" type="conventional"  from="start2" to="end1" depart="2708.379727" />
    <trip id="start1Toend1_55" type="conventional"  from="start1" to="end1" depart="2712.017199" />
    <trip id="start1Toend2_59" type="conventional"  from="start1" to="end2" depart="2732.234685" />
    <trip id="start1Toend2_60" type="conventional"  from="start1" to="end2" depart="2739.158282" />
    <trip id="start1Toend2_61" type="conventional"  from="start1" to="end2" depart="2752.663258" />
    <trip id="start1Toend2_62" type="conventional"  from="start1" to="end2" depart="2767.870955" />
    <trip id="start2Toend2_59" type="conventional"  from="start2" to="end2" depart="2769.058386" />
    <trip id="start2Toend1_62" type="conventional"  from="start2" to="end1" depart="2769.414839" />
    <trip id="start1Toend2_63" type="conventional"  from="start1" to="end2" depart="2778.285662" />
    <trip id="start2Toend1_63" type="conventional"  from="start2" to="end1" depart="2803.175034" />
    <trip id="start1Toend2_64" type="conventional"  from="start1" to="end2" depart="2829.527734" />
    <trip id="start2Toend1_64" type="conventional"  from="start2" to="end1" depart="2830.629078" />
    <trip id="start2Toend2_60" type="conventional"  from="start2" to="end2" depart="2831.896728" />
    <trip id="start1Toend1_56" type="conventional"  from="start1" to="end1" depart="2840.321871" />
    <trip id="start2Toend2_61" type="conventional"  from="start2" to="end2" depart="2851.545319" />
    <trip id="start1Toend2_65" type="conventional"  from="start1" to="end2" depart="2871.321903" />
    <trip id="start2Toend1_65" type="conventional"  from="start2" to="end1" depart="2884.815675" />
    <trip id="start1Toend1_57" type="conventional"  from="start1" to="end1" depart="2898.091661" />
    <trip id="start2Toend1_66" type="conventional"  from="start2" to="end1" depart="2904.259878" />
    <trip id="start2Toend1_67" type="conventional"  from="start2" to="end1" depart="2939.711931" />
    <trip id="start1Toend1_58" type="conventional"  from="start1" to="end1" depart="2953.959653" />
    <trip id="start1Toend1_59" type="conventional"  from="start1" to="end1" depart="2978.043396" />
    <trip id="start1Toend2_66" type="conventional"  from="start1" to="end2" depart="2982.059254" />
    <trip id="start1Toend2_67" type="conventional"  from="start1" to="end2" depart="2991.992087" />
    <trip id="start2Toend1_68" type="conventional"  from="start2" to="end1" depart="2993.227853" />
    <trip id="start2Toend1_69" type="conventional"  from="start2" to="end1" depart="3032.316122" />
    <trip id="start2Toend1_70" type="conventional"  from="start2" to="end1" depart="3043.335879" />
    <trip id="start1Toend2_68" type="conventional"  from="start1" to="end2" depart="3057.937844" />
    <trip id="start2Toend2_62" type="conventional"  from="start2" to="end2" depart="3082.139604" />
    <trip id="start2Toend2_63" type="conventional"  from="start2" to="end2" depart="3101.930203" />
    <trip id="start1Toend2_69" type="conventional"  from="start1" to="end2" depart="3111.285395" />
    <trip id="start1Toend1_60" type="conventional"  from="start1" to="end1" depart="3112.383657" />
    <trip id="start2Toend1_71" type="conventional"  from="start2" to="end1" depart="3115.068925" />
    <trip id="start1Toend1_61" type="conventional"  from="start1" to="end1" depart="3117.236079" />
    <trip id="start1Toend1_62" type="conventional"  from="start1" to="end1" depart="3133.460375" />
    <trip id="start1Toend1_63" type="conventional"  from="start1" to="end1" depart="3149.586977" />
    <trip id="start2Toend2_64" type="conventional"  from="start2" to="end2" depart="3158.510743" />
    <trip id="start2Toend1_72" type="conventional"  from="start2" to="end1" depart="3199.816936" />
    <trip id="start1Toend1_64" type="conventional"  from="start1" to="end1" depart="3208.917067" />
    <trip id="start2Toend1_73" type="conventional"  from="start2" to="end1" depart="3213.497532" />
    <trip id="start2Toend2_65" type="conventional"  from="start2" to="end2" depart="3218.097339" />
    <trip id="start2Toend2_66" type="conventional"  from="start2" to="end2" depart="3249.726734" />
    <trip id="start1Toend2_70" type="conventional"  from="start1" to="end2" depart="3254.721241" />
    <trip id="start1Toend1_65" type="conventional"  from="start1" to="end1" depart="3254.928175" />
    <trip id="start1Toend2_71" type="conventional"  from="start1" to="end2" depart="3259.861529" />