<?xml version="1.0" encoding="UTF-8"?>

<routes>

	<route id="route0" edges="start1 end1" />
    <route id="route1" edges="start1 end2" />
    <route id="route2" edges="start2 end1" />
    <route id="route3" edges="start2 end2" />


    <vType id="conventional" vClass="passenger" tau="5.5" minGap="7.5" carFollowModel="IDM" maxSpeed="40.00"/>
    <vType id="conventional_human" vClass="passenger" tau="5.5" minGap="7.5" carFollowModel="IDM" maxSpeed="40.00" color="52,128,235"/>
    <!--vType id="conventional_human" vClass="passenger" tau="3.5" minGap="5.5" carFollowModel="IDM" maxSpeed="28.00" color="52,128,235"/-->
    <vType id="non_merging" vClass="passenger" tau="5.5" minGap="7.5" carFollowModel="IDM" maxSpeed="40.00"/>
    <vType id="merging" vClass="passenger" carFollowModel="IDM" emergencyDecel="4.5" length="5" tau="0.1" maxSpeed="40.00" color="1,1,0" accel="10.3" decel="1.7" sigma="0.0" minGap="2.0"/>
    <!--vType id="connected" vClass="passenger" tau="2.5" minGap="5.5" carFollowModel="IDM" maxSpeed="28.00" lcCooperative="0.0" color="1,1,0" lcStrategic="1.0" accel="3.0" decel="1.5" emergencyDecel="4.5" lcSpeedGain="0.3" sigma="0.0" lcKeepRight="0.3"-->
    <vType id="connected" vClass="passenger" tau="5.5" minGap="7.5" carFollowModel="IDM" maxSpeed="1.00" emergencyDecel="4.5"/>
    <vType id="routeByDistance" maxSpeed="1"/>
    <vType id="connected_pCatchupFollower" vClass="passenger" carFollowModel="IDM" emergencyDecel="4.5" length="5" tau="0.1" maxSpeed="40.00" color="1,1,0" accel="10.3" decel="1.7" sigma="0.0" minGap="2.0"/>
    <vType id="connected_pCatchup" vClass="passenger" tau="0.1" carFollowModel="IDM" emergencyDecel="4.5" maxSpeed="40.00" color="0,0.8,0.3" accel="10.3" decel="1.7" sigma="0.0" minGap="2.0"/>
    <vType id="connected_pFollower" vClass="passenger" tau="0.1" carFollowModel="IDM" maxSpeed="40.00" color="1,1,0" accel="10.3" decel="1.7" sigma="0.0"  minGap="2.0" emergencyDecel="4.5"/>
    <vType id="connected_pLeader" vClass="passenger" length="5" carFollowModel="IDM" maxSpeed="40.00" lcCooperative="0.0" color="1,1,0" lcStrategic="1.0" accel="13.0" decel="1.5" emergencyDecel="4.5" lcSpeedGain="0.3" sigma="0.0" lcKeepRight="0.3"/>

    
	
    <trip id="start1Toend1_0" type="conventional"  from="start1" to="end1" depart="0.000000" />
    <trip id="start2Toend1_0" type="conventional"  from="start2" to="end1" depart="0.000000" />
    <trip id="start2Toend1_1" type="conventional"  from="start2" to="end1" depart="4.312760" />
    <trip id="start1Toend1_1" type="conventional"  from="start1" to="end1" depart="4.779989" />
    <trip id="start2Toend1_2" type="conventional"  from="start2" to="end1" depart="5.690090" />
    <trip id="start2Toend1_3" type="conventional"  from="start2" to="end1" depart="8.417620" />
    <trip id="start1Toend2_0" type="conventional"  from="start1" to="end2" depart="10.000000" />
    <trip id="start2Toend2_0" type="conventional"  from="start2" to="end2" depart="10.000000" />
    <trip id="start2Toend2_1" type="conventional"  from="start2" to="end2" depart="12.947133" />
    <trip id="start1Toend1_2" type="conventional"  from="start1" to="end1" depart="13.032440" />
    <trip id="start2Toend1_4" type="conventional"  from="start2" to="end1" depart="14.790985" />
    <trip id="start2Toend1_5" type="conventional"  from="start2" to="end1" depart="16.985641" />
    <trip id="start1Toend2_1" type="conventional"  from="start1" to="end2" depart="17.122939" />
    <trip id="start1Toend2_2" type="conventional"  from="start1" to="end2" depart="17.625722" />
    <trip id="start1Toend1_3" type="conventional"  from="start1" to="end1" depart="21.988422" />
    <trip id="start1Toend2_3" type="conventional"  from="start1" to="end2" depart="22.842493" />
    <trip id="start2Toend1_6" type="conventional"  from="start2" to="end1" depart="22.949916" />
    <trip id="start1Toend1_4" type="conventional"  from="start1" to="end1" depart="26.152933" />
    <trip id="start1Toend1_5" type="conventional"  from="start1" to="end1" depart="29.132771" />
    <trip id="start1Toend2_4" type="conventional"  from="start1" to="end2" depart="33.358836" />
    <trip id="start2Toend2_2" type="conventional"  from="start2" to="end2" depart="33.433784" />
    <trip id="start2Toend2_3" type="conventional"  from="start2" to="end2" depart="36.006214" />
    <trip id="start2Toend2_4" type="conventional"  from="start2" to="end2" depart="40.833827" />
    <trip id="start2Toend1_7" type="conventional"  from="start2" to="end1" depart="41.651012" />
    <trip id="start2Toend1_8" type="conventional"  from="start2" to="end1" depart="44.966918" />
    <trip id="start2Toend1_9" type="conventional"  from="start2" to="end1" depart="49.566191" />
    <trip id="start1Toend1_6" type="conventional"  from="start1" to="end1" depart="50.219075" />
    <trip id="start1Toend2_5" type="conventional"  from="start1" to="end2" depart="53.046668" />
    <trip id="start1Toend1_7" type="conventional"  from="start1" to="end1" depart="54.585153" />
    <trip id="start2Toend2_5" type="conventional"  from="start2" to="end2" depart="55.355941" />
    <trip id="start1Toend2_6" type="conventional"  from="start1" to="end2" depart="60.193526" />
    <trip id="start1Toend2_7" type="conventional"  from="start1" to="end2" depart="63.075686" />
    <trip id="start2Toend1_10" type="conventional"  from="start2" to="end1" depart="64.471790" />
    <trip id="start2Toend1_11" type="conventional"  from="start2" to="end1" depart="66.587143" />
    <trip id="start1Toend1_8" type="conventional"  from="start1" to="end1" depart="69.431107" />
    <trip id="start1Toend1_9" type="conventional"  from="start1" to="end1" depart="69.957312" />
    <trip id="start2Toend2_6" type="conventional"  from="start2" to="end2" depart="70.007152" />
    <trip id="start1Toend1_10" type="conventional"  from="start1" to="end1" depart="73.240772" />
    <trip id="start1Toend1_11" type="conventional"  from="start1" to="end1" depart="74.603939" />
    <trip id="start1Toend1_12" type="conventional"  from="start1" to="end1" depart="74.986186" />
    <trip id="start2Toend1_12" type="conventional"  from="start2" to="end1" depart="76.325449" />
    <trip id="start2Toend1_13" type="conventional"  from="start2" to="end1" depart="76.785632" />
    <trip id="start2Toend1_14" type="conventional"  from="start2" to="end1" depart="76.963152" />
    <trip id="start2Toend1_15" type="conventional"  from="start2" to="end1" depart="79.719382" />
    <trip id="start1Toend2_8" type="conventional"  from="start1" to="end2" depart="86.399490" />
    <trip id="start2Toend1_16" type="conventional"  from="start2" to="end1" depart="88.334009" />
    <trip id="start1Toend2_9" type="conventional"  from="start1" to="end2" depart="88.874835" />
    <trip id="start1Toend2_10" type="conventional"  from="start1" to="end2" depart="89.214798" />
    <trip id="start2Toend1_17" type="conventional"  from="start2" to="end1" depart="95.186881" />
    <trip id="start2Toend1_18" type="conventional"  from="start2" to="end1" depart="97.187319" />
    <trip id="start2Toend1_19" type="conventional"  from="start2" to="end1" depart="97.188600" />
    <trip id="start1Toend2_11" type="conventional"  from="start1" to="end2" depart="100.208696" />
    <trip id="start2Toend2_7" type="conventional"  from="start2" to="end2" depart="107.048302" />
    <trip id="start2Toend1_20" type="conventional"  from="start2" to="end1" depart="110.589446" />
    <trip id="start2Toend1_21" type="conventional"  from="start2" to="end1" depart="110.995072" />
    <trip id="start1Toend2_12" type="conventional"  from="start1" to="end2" depart="112.575243" />
    <trip id="start1Toend2_13" type="conventional"  from="start1" to="end2" depart="118.171390" />
    <trip id="start1Toend2_14" type="conventional"  from="start1" to="end2" depart="121.131397" />
    <trip id="start1Toend2_15" type="conventional"  from="start1" to="end2" depart="123.163864" />
    <trip id="start2Toend2_8" type="conventional"  from="start2" to="end2" depart="125.437437" />
    <trip id="start2Toend1_22" type="conventional"  from="start2" to="end1" depart="128.632100" />
    <trip id="start2Toend1_23" type="conventional"  from="start2" to="end1" depart="129.379225" />
    <trip id="start1Toend1_13" type="conventional"  from="start1" to="end1" depart="132.261747" />
    <trip id="start2Toend2_9" type="conventional"  from="start2" to="end2" depart="134.738593" />
    <trip id="start2Toend2_10" type="conventional"  from="start2" to="end2" depart="136.338329" />
    <trip id="start2Toend1_24" type="conventional"  from="start2" to="end1" depart="136.551112" />
    <trip id="start2Toend2_11" type="conventional"  from="start2" to="end2" depart="138.819203" />
    <trip id="start1Toend1_14" type="conventional"  from="start1" to="end1" depart="138.972915" />
    <trip id="start2Toend1_25" type="conventional"  from="start2" to="end1" depart="139.108520" />
    <trip id="start1Toend2_16" type="conventional"  from="start1" to="end2" depart="139.281143" />
    <trip id="start1Toend1_15" type="conventional"  from="start1" to="end1" depart="140.999203" />
    <trip id="start2Toend1_26" type="conventional"  from="start2" to="end1" depart="144.611121" />
    <trip id="start1Toend1_16" type="conventional"  from="start1" to="end1" depart="146.512251" />
    <trip id="start1Toend1_17" type="conventional"  from="start1" to="end1" depart="146.600649" />
    <trip id="start2Toend1_27" type="conventional"  from="start2" to="end1" depart="149.879309" />
    <trip id="start2Toend1_28" type="conventional"  from="start2" to="end1" depart="152.283324" />
    <trip id="start2Toend1_29" type="conventional"  from="start2" to="end1" depart="154.260496" />
    <trip id="start1Toend1_18" type="conventional"  from="start1" to="end1" depart="164.912723" />
    <trip id="start1Toend1_19" type="conventional"  from="start1" to="end1" depart="166.195600" />
    <trip id="start2Toend2_12" type="conventional"  from="start2" to="end2" depart="166.290573" />
    <trip id="start1Toend1_20" type="conventional"  from="start1" to="end1" depart="167.242105" />
    <trip id="start2Toend1_30" type="conventional"  from="start2" to="end1" depart="167.563445" />
    <trip id="start1Toend2_17" type="conventional"  from="start1" to="end2" depart="167.882647" />
    <trip id="start2Toend2_13" type="conventional"  from="start2" to="end2" depart="168.707022" />
    <trip id="start2Toend2_14" type="conventional"  from="start2" to="end2" depart="168.798406" />
    <trip id="start2Toend1_31" type="conventional"  from="start2" to="end1" depart="169.295670" />
    <trip id="start1Toend2_18" type="conventional"  from="start1" to="end2" depart="171.119821" />
    <trip id="start1Toend1_21" type="conventional"  from="start1" to="end1" depart="172.438025" />
    <trip id="start1Toend1_22" type="conventional"  from="start1" to="end1" depart="174.973449" />
    <trip id="start2Toend1_32" type="conventional"  from="start2" to="end1" depart="182.816133" />
    <trip id="start2Toend1_33" type="conventional"  from="start2" to="end1" depart="183.891982" />
    <trip id="start1Toend1_23" type="conventional"  from="start1" to="end1" depart="185.227428" />
    <trip id="start2Toend1_34" type="conventional"  from="start2" to="end1" depart="190.260272" />
    <trip id="start1Toend2_19" type="conventional"  from="start1" to="end2" depart="191.703154" />
    <trip id="start1Toend1_24" type="conventional"  from="start1" to="end1" depart="194.440765" />
    <trip id="start1Toend1_25" type="conventional"  from="start1" to="end1" depart="194.830916" />
    <trip id="start2Toend2_15" type="conventional"  from="start2" to="end2" depart="195.922789" />
    <trip id="start2Toend1_35" type="conventional"  from="start2" to="end1" depart="196.534392" />
    <trip id="start1Toend1_26" type="conventional"  from="start1" to="end1" depart="199.352127" />
    <trip id="start2Toend1_36" type="conventional"  from="start2" to="end1" depart="199.686640" />
    <trip id="start2Toend2_16" type="conventional"  from="start2" to="end2" depart="200.849929" />
    <trip id="start1Toend1_27" type="conventional"  from="start1" to="end1" depart="201.925884" />
    <trip id="start1Toend2_20" type="conventional"  from="start1" to="end2" depart="204.664809" />
    <trip id="start2Toend1_37" type="conventional"  from="start2" to="end1" depart="205.739762" />
    <trip id="start2Toend2_17" type="conventional"  from="start2" to="end2" depart="207.303261" />
    <trip id="start2Toend2_18" type="conventional"  from="start2" to="end2" depart="207.695376" />
    <trip id="start2Toend1_38" type="conventional"  from="start2" to="end1" depart="214.971484" />
    <trip id="start2Toend1_39" type="conventional"  from="start2" to="end1" depart="217.480579" />
    <trip id="start1Toend2_21" type="conventional"  from="start1" to="end2" depart="217.942239" />
    <trip id="start2Toend1_40" type="conventional"  from="start2" to="end1" depart="219.788121" />
    <trip id="start1Toend1_28" type="conventional"  from="start1" to="end1" depart="221.465588" />
    <trip id="start1Toend2_22" type="conventional"  from="start1" to="end2" depart="223.358491" />
    <trip id="start1Toend2_23" type="conventional"  from="start1" to="end2" depart="226.120005" />
    <trip id="start2Toend1_41" type="conventional"  from="start2" to="end1" depart="226.818658" />
    <trip id="start1Toend2_24" type="conventional"  from="start1" to="end2" depart="226.820693" />
    <trip id="start2Toend2_19" type="conventional"  from="start2" to="end2" depart="227.068740" />
    <trip id="start1Toend2_25" type="conventional"  from="start1" to="end2" depart="228.010558" />
    <trip id="start1Toend2_26" type="conventional"  from="start1" to="end2" depart="229.525137" />
    <trip id="start2Toend2_20" type="conventional"  from="start2" to="end2" depart="232.234052" />
    <trip id="start2Toend1_42" type="conventional"  from="start2" to="end1" depart="234.161557" />
    <trip id="start1Toend1_29" type="conventional"  from="start1" to="end1" depart="234.472075" />
    <trip id="start2Toend1_43" type="conventional"  from="start2" to="end1" depart="234.737061" />
    <trip id="start2Toend1_44" type="conventional"  from="start2" to="end1" depart="236.997295" />
    <trip id="start2Toend2_21" type="conventional"  from="start2" to="end2" depart="241.064289" />
    <trip id="start1Toend2_27" type="conventional"  from="start1" to="end2" depart="241.870867" />
    <trip id="start1Toend2_28" type="conventional"  from="start1" to="end2" depart="245.454567" />
    <trip id="start2Toend1_45" type="conventional"  from="start2" to="end1" depart="245.977958" />
    <trip id="start2Toend1_46" type="conventional"  from="start2" to="end1" depart="246.796330" />
    <trip id="start2Toend2_22" type="conventional"  from="start2" to="end2" depart="248.835337" />
    <trip id="start1Toend2_29" type="conventional"  from="start1" to="end2" depart="249.296287" />
    <trip id="start2Toend1_47" type="conventional"  from="start2" to="end1" depart="250.657038" />
    <trip id="start2Toend1_48" type="conventional"  from="start2" to="end1" depart="251.092480" />
    <trip id="start2Toend1_49" type="conventional"  from="start2" to="end1" depart="251.455284" />
    <trip id="start2Toend1_50" type="conventional"  from="start2" to="end1" depart="251.754474" />
    <trip id="start1Toend2_30" type="conventional"  from="start1" to="end2" depart="252.275726" />
    <trip id="start1Toend1_30" type="conventional"  from="start1" to="end1" depart="252.333334" />
    <trip id="start1Toend2_31" type="conventional"  from="start1" to="end2" depart="252.411510" />
    <trip id="start1Toend1_31" type="conventional"  from="start1" to="end1" depart="258.840016" />
    <trip id="start2Toend2_23" type="conventional"  from="start2" to="end2" depart="260.539504" />
    <trip id="start1Toend1_32" type="conventional"  from="start1" to="end1" depart="261.053101" />
    <trip id="start1Toend2_32" type="conventional"  from="start1" to="end2" depart="261.645352" />
    <trip id="start2Toend2_24" type="conventional"  from="start2" to="end2" depart="262.375900" />
    <trip id="start1Toend2_33" type="conventional"  from="start1" to="end2" depart="263.537964" />
    <trip id="start1Toend2_34" type="conventional"  from="start1" to="end2" depart="267.444406" />
    <trip id="start2Toend2_25" type="conventional"  from="start2" to="end2" depart="269.648393" />
    <trip id="start2Toend2_26" type="conventional"  from="start2" to="end2" depart="275.982607" />
    <trip id="start2Toend2_27" type="conventional"  from="start2" to="end2" depart="277.000991" />
    <trip id="start2Toend2_28" type="conventional"  from="start2" to="end2" depart="283.834503" />
    <trip id="start1Toend1_33" type="conventional"  from="start1" to="end1" depart="285.328285" />
    <trip id="start2Toend1_51" type="conventional"  from="start2" to="end1" depart="286.602027" />
    <trip id="start2Toend2_29" type="conventional"  from="start2" to="end2" depart="287.046336" />
    <trip id="start2Toend2_30" type="conventional"  from="start2" to="end2" depart="292.635036" />
    <trip id="start2Toend1_52" type="conventional"  from="start2" to="end1" depart="294.585153" />
    <trip id="start2Toend1_53" type="conventional"  from="start2" to="end1" depart="294.918271" />
    <trip id="start2Toend2_31" type="conventional"  from="start2" to="end2" depart="295.215707" />
    <trip id="start2Toend1_54" type="conventional"  from="start2" to="end1" depart="298.327874" />
    <trip id="start1Toend1_34" type="conventional"  from="start1" to="end1" depart="300.717772" />
    <trip id="start2Toend1_55" type="conventional"  from="start2" to="end1" depart="303.460117" />
    <trip id="start2Toend2_32" type="conventional"  from="start2" to="end2" depart="305.166799" />
    <trip id="start2Toend1_56" type="conventional"  from="start2" to="end1" depart="306.015756" />
    <trip id="start2Toend1_57" type="conventional"  from="start2" to="end1" depart="308.477762" />
    <trip id="start1Toend1_35" type="conventional"  from="start1" to="end1" depart="308.650971" />
    <trip id="start1Toend1_36" type="conventional"  from="start1" to="end1" depart="310.824002" />
    <trip id="start2Toend2_33" type="conventional"  from="start2" to="end2" depart="311.417739" />
    <trip id="start2Toend2_34" type="conventional"  from="start2" to="end2" depart="311.603469" />
    <trip id="start2Toend1_58" type="conventional"  from="start2" to="end1" depart="312.029090" />
    <trip id="start1Toend2_35" type="conventional"  from="start1" to="end2" depart="312.193821" />
    <trip id="start2Toend2_35" type="conventional"  from="start2" to="end2" depart="312.206978" />
    <trip id="start1Toend2_36" type="conventional"  from="start1" to="end2" depart="312.352984" />
    <trip id="start2Toend2_36" type="conventional"  from="start2" to="end2" depart="313.089707" />
    <trip id="start1Toend2_37" type="conventional"  from="start1" to="end2" depart="316.209085" />
    <trip id="start1Toend1_37" type="conventional"  from="start1" to="end1" depart="316.940030" />
    <trip id="start2Toend1_59" type="conventional"  from="start2" to="end1" depart="320.232025" />
    <trip id="start2Toend2_37" type="conventional"  from="start2" to="end2" depart="321.105837" />
    <trip id="start2Toend1_60" type="conventional"  from="start2" to="end1" depart="324.440409" />
    <trip id="start2Toend2_38" type="conventional"  from="start2" to="end2" depart="326.005531" />
    <trip id="start2Toend2_39" type="conventional"  from="start2" to="end2" depart="326.868371" />
    <trip id="start2Toend1_61" type="conventional"  from="start2" to="end1" depart="326.882742" />
    <trip id="start1Toend1_38" type="conventional"  from="start1" to="end1" depart="326.993659" />
    <trip id="start1Toend1_39" type="conventional"  from="start1" to="end1" depart="327.257673" />
    <trip id="start1Toend2_38" type="conventional"  from="start1" to="end2" depart="327.761399" />
    <trip id="start1Toend2_39" type="conventional"  from="start1" to="end2" depart="329.792252" />
    <trip id="start2Toend2_40" type="conventional"  from="start2" to="end2" depart="331.870000" />
    <trip id="start2Toend2_41" type="conventional"  from="start2" to="end2" depart="335.310199" />
    <trip id="start2Toend1_62" type="conventional"  from="start2" to="end1" depart="335.967848" />
    <trip id="start2Toend1_63" type="conventional"  from="start2" to="end1" depart="337.259727" />
    <trip id="start1Toend1_40" type="conventional"  from="start1" to="end1" depart="339.001586" />
    <trip id="start1Toend1_41" type="conventional"  from="start1" to="end1" depart="342.061168" />
    <trip id="start2Toend2_42" type="conventional"  from="start2" to="end2" depart="344.603357" />
    <trip id="start1Toend1_42" type="conventional"  from="start1" to="end1" depart="344.663193" />
    <trip id="start2Toend1_64" type="conventional"  from="start2" to="end1" depart="345.541556" />
    <trip id="start2Toend1_65" type="conventional"  from="start2" to="end1" depart="349.160842" />
    <trip id="start2Toend2_43" type="conventional"  from="start2" to="end2" depart="349.661222" />
    <trip id="start2Toend2_44" type="conventional"  from="start2" to="end2" depart="355.886566" />
    <trip id="start2Toend1_66" type="conventional"  from="start2" to="end1" depart="360.602339" />
    <trip id="start2Toend1_67" type="conventional"  from="start2" to="end1" depart="362.984129" />
    <trip id="start1Toend2_40" type="conventional"  from="start1" to="end2" depart="363.058807" />
    <trip id="start1Toend2_41" type="conventional"  from="start1" to="end2" depart="364.392363" />
    <trip id="start2Toend1_68" type="conventional"  from="start2" to="end1" depart="365.934503" />
    <trip id="start1Toend1_43" type="conventional"  from="start1" to="end1" depart="367.101244" />
    <trip id="start2Toend2_45" type="conventional"  from="start2" to="end2" depart="367.611916" />
    <trip id="start1Toend1_44" type="conventional"  from="start1" to="end1" depart="374.409806" />
    <trip id="start1Toend1_45" type="conventional"  from="start1" to="end1" depart="375.963794" />
    <trip id="start2Toend1_69" type="conventional"  from="start2" to="end1" depart="377.050475" />
    <trip id="start2Toend1_70" type="conventional"  from="start2" to="end1" depart="379.779390" />
    <trip id="start2Toend1_71" type="conventional"  from="start2" to="end1" depart="381.343272" />
    <trip id="start2Toend2_46" type="conventional"  from="start2" to="end2" depart="381.994387" />
    <trip id="start1Toend1_46" type="conventional"  from="start1" to="end1" depart="383.854657" />
    <trip id="start1Toend2_42" type="conventional"  from="start1" to="end2" depart="384.982925" />
    <trip id="start1Toend1_47" type="conventional"  from="start1" to="end1" depart="385.287470" />
    <trip id="start2Toend2_47" type="conventional"  from="start2" to="end2" depart="385.595621" />
    <trip id="start1Toend2_43" type="conventional"  from="start1" to="end2" depart="386.855984" />
    <trip id="start1Toend1_48" type="conventional"  from="start1" to="end1" depart="387.064073" />
    <trip id="start2Toend1_72" type="conventional"  from="start2" to="end1" depart="390.844454" />
    <trip id="start1Toend1_49" type="conventional"  from="start1" to="end1" depart="393.958208" />
    <trip id="start1Toend1_50" type="conventional"  from="start1" to="end1" depart="394.961584" />
    <trip id="start1Toend2_44" type="conventional"  from="start1" to="end2" depart="396.707257" />
    <trip id="start2Toend1_73" type="conventional"  from="start2" to="end1" depart="397.146544" />
    <trip id="start2Toend2_48" type="conventional"  from="start2" to="end2" depart="399.010980" />
    <trip id="start2Toend1_74" type="conventional"  from="start2" to="end1" depart="399.712290" />
    <trip id="start2Toend1_75" type="conventional"  from="start2" to="end1" depart="404.094277" />
    <trip id="start1Toend2_45" type="conventional"  from="start1" to="end2" depart="404.774741" />
    <trip id="start2Toend2_49" type="conventional"  from="start2" to="end2" depart="406.488253" />
    <trip id="start2Toend2_50" type="conventional"  from="start2" to="end2" depart="409.207313" />
    <trip id="start2Toend1_76" type="conventional"  from="start2" to="end1" depart="414.671817" />
    <trip id="start1Toend1_51" type="conventional"  from="start1" to="end1" depart="414.925506" />
    <trip id="start1Toend1_52" type="conventional"  from="start1" to="end1" depart="415.638745" />
    <trip id="start2Toend2_51" type="conventional"  from="start2" to="end2" depart="417.462852" />
    <trip id="start1Toend1_53" type="conventional"  from="start1" to="end1" depart="417.974505" />
    <trip id="start2Toend1_77" type="conventional"  from="start2" to="end1" depart="420.422401" />
    <trip id="start2Toend2_52" type="conventional"  from="start2" to="end2" depart="420.625751" />
    <trip id="start1Toend2_46" type="conventional"  from="start1" to="end2" depart="423.449341" />
    <trip id="start2Toend2_53" type="conventional"  from="start2" to="end2" depart="423.714298" />
    <trip id="start1Toend1_54" type="conventional"  from="start1" to="end1" depart="424.052509" />
    <trip id="start1Toend2_47" type="conventional"  from="start1" to="end2" depart="424.455840" />
    <trip id="start2Toend1_78" type="conventional"  from="start2" to="end1" depart="425.015276" />
    <trip id="start1Toend2_48" type="conventional"  from="start1" to="end2" depart="425.495271" />
    <trip id="start2Toend2_54" type="conventional"  from="start2" to="end2" depart="429.138801" />
    <trip id="start2Toend1_79" type="conventional"  from="start2" to="end1" depart="431.079512" />
    <trip id="start1Toend2_49" type="conventional"  from="start1" to="end2" depart="432.108929" />
    <trip id="start1Toend1_55" type="conventional"  from="start1" to="end1" depart="434.752790" />
    <trip id="start2Toend2_55" type="conventional"  from="start2" to="end2" depart="435.323068" />
    <trip id="start1Toend2_50" type="conventional"  from="start1" to="end2" depart="437.093797" />
    <trip id="start1Toend2_51" type="conventional"  from="start1" to="end2" depart="439.014651" />
    <trip id="start2Toend2_56" type="conventional"  from="start2" to="end2" depart="441.231612" />
    <trip id="start1Toend2_52" type="conventional"  from="start1" to="end2" depart="441.934467" />
    <trip id="start1Toend2_53" type="conventional"  from="start1" to="end2" depart="442.223139" />
    <trip id="start2Toend2_57" type="conventional"  from="start2" to="end2" depart="444.411646" />
    <trip id="start1Toend2_54" type="conventional"  from="start1" to="end2" depart="444.632760" />
    <trip id="start1Toend1_56" type="conventional"  from="start1" to="end1" depart="445.085883" />
    <trip id="start2Toend2_58" type="conventional"  from="start2" to="end2" depart="449.540039" />
    <trip id="start2Toend2_59" type="conventional"  from="start2" to="end2" depart="453.084298" />
    <trip id="start2Toend1_80" type="conventional"  from="start2" to="end1" depart="453.964634" />
    <trip id="start2Toend1_81" type="conventional"  from="start2" to="end1" depart="454.095230" />
    <trip id="start1Toend2_55" type="conventional"  from="start1" to="end2" depart="454.120680" />
    <trip id="start2Toend1_82" type="conventional"  from="start2" to="end1" depart="459.165389" />
    <trip id="start2Toend1_83" type="conventional"  from="start2" to="end1" depart="460.977657" />
    <trip id="start1Toend1_57" type="conventional"  from="start1" to="end1" depart="461.522505" />
    <trip id="start2Toend1_84" type="conventional"  from="start2" to="end1" depart="462.819482" />
    <trip id="start2Toend2_60" type="conventional"  from="start2" to="end2" depart="462.929254" />
    <trip id="start2Toend1_85" type="conventional"  from="start2" to="end1" depart="464.358616" />
    <trip id="start1Toend2_56" type="conventional"  from="start1" to="end2" depart="464.402154" />
    <trip id="start1Toend2_57" type="conventional"  from="start1" to="end2" depart="465.808589" />
    <trip id="start1Toend2_58" type="conventional"  from="start1" to="end2" depart="466.004410" />
    <trip id="start2Toend1_86" type="conventional"  from="start2" to="end1" depart="468.820758" />
    <trip id="start2Toend2_61" type="conventional"  from="start2" to="end2" depart="469.272362" />
    <trip id="start2Toend1_87" type="conventional"  from="start2" to="end1" depart="469.951736" />
    <trip id="start2Toend1_88" type="conventional"  from="start2" to="end1" depart="472.307594" />
    <trip id="start2Toend1_89" type="conventional"  from="start2" to="end1" depart="477.080313" />
    <trip id="start2Toend1_90" type="conventional"  from="start2" to="end1" depart="477.153679" />
    <trip id="start1Toend1_58" type="conventional"  from="start1" to="end1" depart="479.488136" />
    <trip id="start1Toend1_59" type="conventional"  from="start1" to="end1" depart="482.418447" />
    <trip id="start1Toend2_59" type="conventional"  from="start1" to="end2" depart="483.426240" />
    <trip id="start1Toend1_60" type="conventional"  from="start1" to="end1" depart="486.298485" />
    <trip id="start1Toend2_60" type="conventional"  from="start1" to="end2" depart="486.385178" />
    <trip id="start2Toend2_62" type="conventional"  from="start2" to="end2" depart="488.046218" />
    <trip id="start2Toend1_91" type="conventional"  from="start2" to="end1" depart="490.993073" />
    <trip id="start1Toend1_61" type="conventional"  from="start1" to="end1" depart="494.165841" />
    <trip id="start2Toend2_63" type="conventional"  from="start2" to="end2" depart="496.576878" />
    <trip id="start1Toend2_61" type="conventional"  from="start1" to="end2" depart="496.888635" />
    <trip id="start1Toend1_62" type="conventional"  from="start1" to="end1" depart="498.631522" />