<?xml version="1.0" encoding="UTF-8"?>

<routes>

	<route id="route0" edges="start1 end1" />
    <route id="route1" edges="start1 end2" />
    <route id="route2" edges="start2 end1" />
    <route id="route3" edges="start2 end2" />


    <vType id="conventional" vClass="passenger" tau="5.5" minGap="7.5" carFollowModel="IDM" maxSpeed="40.00"/>
    <vType id="conventional_human" vClass="passenger" tau="5.5" minGap="7.5" carFollowModel="IDM" maxSpeed="40.00" color="52,128,235"/>
    <!--vType id="conventional_human" vClass="passenger" tau="3.5" minGap="5.5" carFollowModel="IDM" maxSpeed="28.00" color="52,128,235"/-->
    <vType id="non_merging" vClass="passenger" tau="5.5" minGap="7.5" carFollowModel="IDM" maxSpeed="40.00"/>
    <vType id="merging" vClass="passenger" carFollowModel="IDM" emergencyDecel="4.5" length="5" tau="0.1" maxSpeed="40.00" color="1,1,0" accel="10.3" decel="1.7" sigma="0.0" minGap="2.0"/>
    <!--vType id="connected" vClass="passenger" tau="2.5" minGap="5.5" carFollowModel="IDM" maxSpeed="28.00" lcCooperative="0.0" color="1,1,0" lcStrategic="1.0" accel="3.0" decel="1.5" emergencyDecel="4.5" lcSpeedGain="0.3" sigma="0.0" lcKeepRight="0.3"-->
    <vType id="connected" vClass="passenger" tau="5.5" minGap="7.5" carFollowModel="IDM" maxSpeed="1.00" emergencyDecel="4.5"/>
    <vType id="routeByDistance" maxSpeed="1"/>
    <vType id="connected_pCatchupFollower" vClass="passenger" carFollowModel="IDM" emergencyDecel="4.5" length="5" tau="0.1" maxSpeed="40.00" color="1,1,0" accel="10.3" decel="1.7" sigma="0.0" minGap="2.0"/>
    <vType id="connected_pCatchup" vClass="passenger" tau="0.1" carFollowModel="IDM" emergencyDecel="4.5" maxSpeed="40.00" color="0,0.8,0.3" accel="10.3" decel="1.7" sigma="0.0" minGap="2.0"/>
    <vType id="connected_pFollower" vClass="passenger" tau="0.1" carFollowModel="IDM" maxSpeed="40.00" color="1,1,0" accel="10.3" decel="1.7" sigma="0.0"  minGap="2.0" emergencyDecel="4.5"/>
    <vType id="connected_pLeader" vClass="passenger" length="5" carFollowModel="IDM" maxSpeed="40.00" lcCooperative="0.0" color="1,1,0" lcStrategic="1.0" accel="13.0" decel="1.5" emergencyDecel="4.5" lcSpeedGain="0.3" sigma="0.0" lcKeepRight="0.3"/>

    
	
    <trip id="start1Toend1_0" type="conventional"  from="start1" to="end1" depart="0.000000" />
    <trip id="start2Toend1_0" type="conventional"  from="start2" to="end1" depart="0.000000" />
    <trip id="start2Toend1_1" type="conventional"  from="start2" to="end1" depart="1.799038" />
    <trip id="start1Toend2_0" type="conventional"  from="start1" to="end2" depart="10.000000" />
    <trip id="start2Toend2_0" type="conventional"  from="start2" to="end2" depart="10.000000" />
    <trip id="start2Toend2_1" type="conventional"  from="start2" to="end2" depart="10.924604" />
    <trip id="start2Toend2_2" type="conventional"  from="start2" to="end2" depart="11.057226" />
    <trip id="start2Toend1_2" type="conventional"  from="start2" to="end1" depart="11.197272" />
    <trip id="start2Toend1_3" type="conventional"  from="start2" to="end1" depart="13.033486" />
    <trip id="start1Toend1_1" type="conventional"  from="start1" to="end1" depart="13.453699" />
    <trip id="start1Toend2_1" type="conventional"  from="start1" to="end2" depart="13.550646" />
    <trip id="start2Toend2_3" type="conventional"  from="start2" to="end2" depart="15.830875" />
    <trip id="start1Toend2_2" type="conventional"  from="start1" to="end2" depart="16.569344" />
    <trip id="start1Toend2_3" type="conventional"  from="start1" to="end2" depart="19.273428" />
    <trip id="start2Toend1_4" type="conventional"  from="start2" to="end1" depart="21.006218" />
    <trip id="start2Toend2_4" type="conventional"  from="start2" to="end2" depart="25.445197" />
    <trip id="start1Toend2_4" type="conventional"  from="start1" to="end2" depart="25.450366" />
    <trip id="start2Toend2_5" type="conventional"  from="start2" to="end2" depart="29.941398" />
    <trip id="start1Toend1_2" type="conventional"  from="start1" to="end1" depart="30.661029" />
    <trip id="start1Toend1_3" type="conventional"  from="start1" to="end1" depart="34.816986" />
    <trip id="start1Toend1_4" type="conventional"  from="start1" to="end1" depart="36.780318" />
    <trip id="start2Toend2_6" type="conventional"  from="start2" to="end2" depart="39.393809" />
    <trip id="start1Toend2_5" type="conventional"  from="start1" to="end2" depart="39.470778" />
    <trip id="start1Toend1_5" type="conventional"  from="start1" to="end1" depart="43.553192" />
    <trip id="start1Toend1_6" type="conventional"  from="start1" to="end1" depart="44.249946" />
    <trip id="start2Toend2_7" type="conventional"  from="start2" to="end2" depart="48.629065" />
    <trip id="start2Toend1_5" type="conventional"  from="start2" to="end1" depart="50.060672" />
    <trip id="start2Toend1_6" type="conventional"  from="start2" to="end1" depart="54.156794" />
    <trip id="start2Toend2_8" type="conventional"  from="start2" to="end2" depart="56.504995" />
    <trip id="start2Toend1_7" type="conventional"  from="start2" to="end1" depart="57.905546" />
    <trip id="start2Toend2_9" type="conventional"  from="start2" to="end2" depart="63.713648" />
    <trip id="start1Toend2_6" type="conventional"  from="start1" to="end2" depart="65.452208" />
    <trip id="start2Toend2_10" type="conventional"  from="start2" to="end2" depart="71.540093" />
    <trip id="start2Toend2_11" type="conventional"  from="start2" to="end2" depart="73.805030" />
    <trip id="start1Toend1_7" type="conventional"  from="start1" to="end1" depart="74.624992" />
    <trip id="start1Toend2_7" type="conventional"  from="start1" to="end2" depart="80.812743" />
    <trip id="start1Toend1_8" type="conventional"  from="start1" to="end1" depart="82.740382" />
    <trip id="start2Toend2_12" type="conventional"  from="start2" to="end2" depart="83.488833" />
    <trip id="start1Toend2_8" type="conventional"  from="start1" to="end2" depart="83.939382" />
    <trip id="start2Toend1_8" type="conventional"  from="start2" to="end1" depart="84.328495" />
    <trip id="start2Toend1_9" type="conventional"  from="start2" to="end1" depart="84.471979" />
    <trip id="start2Toend2_13" type="conventional"  from="start2" to="end2" depart="85.481397" />
    <trip id="start1Toend2_9" type="conventional"  from="start1" to="end2" depart="88.812400" />
    <trip id="start2Toend1_10" type="conventional"  from="start2" to="end1" depart="88.984886" />
    <trip id="start1Toend1_9" type="conventional"  from="start1" to="end1" depart="93.071690" />
    <trip id="start2Toend1_11" type="conventional"  from="start2" to="end1" depart="96.195090" />
    <trip id="start2Toend2_14" type="conventional"  from="start2" to="end2" depart="96.704193" />
    <trip id="start2Toend1_12" type="conventional"  from="start2" to="end1" depart="97.150308" />
    <trip id="start2Toend2_15" type="conventional"  from="start2" to="end2" depart="98.629738" />
    <trip id="start2Toend2_16" type="conventional"  from="start2" to="end2" depart="99.998809" />
    <trip id="start1Toend2_10" type="conventional"  from="start1" to="end2" depart="101.861493" />
    <trip id="start1Toend1_10" type="conventional"  from="start1" to="end1" depart="106.039490" />
    <trip id="start2Toend1_13" type="conventional"  from="start2" to="end1" depart="106.470655" />
    <trip id="start1Toend1_11" type="conventional"  from="start1" to="end1" depart="107.259303" />
    <trip id="start1Toend1_12" type="conventional"  from="start1" to="end1" depart="109.809854" />
    <trip id="start1Toend2_11" type="conventional"  from="start1" to="end2" depart="111.389072" />
    <trip id="start1Toend2_12" type="conventional"  from="start1" to="end2" depart="113.916792" />
    <trip id="start1Toend1_13" type="conventional"  from="start1" to="end1" depart="115.319499" />
    <trip id="start2Toend2_17" type="conventional"  from="start2" to="end2" depart="118.363433" />
    <trip id="start2Toend2_18" type="conventional"  from="start2" to="end2" depart="125.323715" />
    <trip id="start2Toend2_19" type="conventional"  from="start2" to="end2" depart="128.910481" />
    <trip id="start1Toend2_13" type="conventional"  from="start1" to="end2" depart="130.324092" />
    <trip id="start1Toend2_14" type="conventional"  from="start1" to="end2" depart="130.591600" />
    <trip id="start2Toend2_20" type="conventional"  from="start2" to="end2" depart="131.595114" />
    <trip id="start2Toend1_14" type="conventional"  from="start2" to="end1" depart="131.621073" />
    <trip id="start2Toend2_21" type="conventional"  from="start2" to="end2" depart="132.722098" />
    <trip id="start2Toend1_15" type="conventional"  from="start2" to="end1" depart="135.845601" />
    <trip id="start1Toend1_14" type="conventional"  from="start1" to="end1" depart="138.117451" />
    <trip id="start1Toend2_15" type="conventional"  from="start1" to="end2" depart="140.620301" />
    <trip id="start1Toend2_16" type="conventional"  from="start1" to="end2" depart="140.842192" />
    <trip id="start1Toend1_15" type="conventional"  from="start1" to="end1" depart="144.205037" />
    <trip id="start2Toend1_16" type="conventional"  from="start2" to="end1" depart="144.949256" />
    <trip id="start1Toend1_16" type="conventional"  from="start1" to="end1" depart="145.510199" />
    <trip id="start1Toend1_17" type="conventional"  from="start1" to="end1" depart="145.732820" />
    <trip id="start1Toend1_18" type="conventional"  from="start1" to="end1" depart="148.141311" />
    <trip id="start2Toend1_17" type="conventional"  from="start2" to="end1" depart="148.825243" />
    <trip id="start1Toend1_19" type="conventional"  from="start1" to="end1" depart="151.656019" />
    <trip id="start2Toend1_18" type="conventional"  from="start2" to="end1" depart="151.979970" />
    <trip id="start1Toend1_20" type="conventional"  from="start1" to="end1" depart="154.101894" />
    <trip id="start1Toend2_17" type="conventional"  from="start1" to="end2" depart="155.062920" />
    <trip id="start1Toend2_18" type="conventional"  from="start1" to="end2" depart="156.882979" />
    <trip id="start2Toend1_19" type="conventional"  from="start2" to="end1" depart="157.168074" />
    <trip id="start1Toend2_19" type="conventional"  from="start1" to="end2" depart="158.098580" />
    <trip id="start1Toend2_20" type="conventional"  from="start1" to="end2" depart="158.501817" />
    <trip id="start1Toend2_21" type="conventional"  from="start1" to="end2" depart="161.193866" />
    <trip id="start2Toend2_22" type="conventional"  from="start2" to="end2" depart="161.885067" />
    <trip id="start2Toend1_20" type="conventional"  from="start2" to="end1" depart="166.947207" />
    <trip id="start1Toend2_22" type="conventional"  from="start1" to="end2" depart="168.874364" />
    <trip id="start1Toend1_21" type="conventional"  from="start1" to="end1" depart="173.893718" />
    <trip id="start2Toend2_23" type="conventional"  from="start2" to="end2" depart="177.114546" />
    <trip id="start1Toend2_23" type="conventional"  from="start1" to="end2" depart="177.401477" />
    <trip id="start1Toend1_22" type="conventional"  from="start1" to="end1" depart="182.334886" />
    <trip id="start1Toend1_23" type="conventional"  from="start1" to="end1" depart="185.164325" />
    <trip id="start1Toend1_24" type="conventional"  from="start1" to="end1" depart="186.258071" />
    <trip id="start1Toend2_24" type="conventional"  from="start1" to="end2" depart="186.416208" />
    <trip id="start2Toend2_24" type="conventional"  from="start2" to="end2" depart="186.973207" />
    <trip id="start2Toend1_21" type="conventional"  from="start2" to="end1" depart="191.077108" />
    <trip id="start2Toend2_25" type="conventional"  from="start2" to="end2" depart="194.421732" />
    <trip id="start2Toend1_22" type="conventional"  from="start2" to="end1" depart="195.098020" />
    <trip id="start1Toend2_25" type="conventional"  from="start1" to="end2" depart="195.324908" />
    <trip id="start2Toend2_26" type="conventional"  from="start2" to="end2" depart="196.853496" />
    <trip id="start2Toend2_27" type="conventional"  from="start2" to="end2" depart="197.731693" />
    <trip id="start2Toend1_23" type="conventional"  from="start2" to="end1" depart="200.864082" />
    <trip id="start2Toend1_24" type="conventional"  from="start2" to="end1" depart="202.029105" />
    <trip id="start2Toend2_28" type="conventional"  from="start2" to="end2" depart="203.311320" />
    <trip id="start2Toend2_29" type="conventional"  from="start2" to="end2" depart="203.643489" />
    <trip id="start2Toend1_25" type="conventional"  from="start2" to="end1" depart="209.515045" />
    <trip id="start1Toend1_25" type="conventional"  from="start1" to="end1" depart="213.107805" />
    <trip id="start2Toend1_26" type="conventional"  from="start2" to="end1" depart="216.128553" />
    <trip id="start2Toend2_30" type="conventional"  from="start2" to="end2" depart="220.666648" />
    <trip id="start1Toend1_26" type="conventional"  from="start1" to="end1" depart="225.968693" />
    <trip id="start1Toend2_26" type="conventional"  from="start1" to="end2" depart="226.120841" />
    <trip id="start2Toend1_27" type="conventional"  from="start2" to="end1" depart="226.605882" />
    <trip id="start2Toend1_28" type="conventional"  from="start2" to="end1" depart="228.468346" />
    <trip id="start2Toend2_31" type="conventional"  from="start2" to="end2" depart="229.968048" />
    <trip id="start1Toend2_27" type="conventional"  from="start1" to="end2" depart="232.550666" />
    <trip id="start2Toend2_32" type="conventional"  from="start2" to="end2" depart="236.196556" />
    <trip id="start1Toend2_28" type="conventional"  from="start1" to="end2" depart="236.207874" />
    <trip id="start1Toend2_29" type="conventional"  from="start1" to="end2" depart="236.298089" />
    <trip id="start2Toend1_29" type="conventional"  from="start2" to="end1" depart="236.863963" />
    <trip id="start1Toend1_27" type="conventional"  from="start1" to="end1" depart="237.307888" />
    <trip id="start2Toend2_33" type="conventional"  from="start2" to="end2" depart="238.731986" />
    <trip id="start2Toend2_34" type="conventional"  from="start2" to="end2" depart="241.150683" />
    <trip id="start2Toend1_30" type="conventional"  from="start2" to="end1" depart="249.424476" />
    <trip id="start2Toend1_31" type="conventional"  from="start2" to="end1" depart="252.514429" />
    <trip id="start2Toend1_32" type="conventional"  from="start2" to="end1" depart="253.854840" />
    <trip id="start1Toend2_30" type="conventional"  from="start1" to="end2" depart="254.078220" />
    <trip id="start1Toend1_28" type="conventional"  from="start1" to="end1" depart="255.685798" />
    <trip id="start1Toend2_31" type="conventional"  from="start1" to="end2" depart="257.891044" />
    <trip id="start1Toend1_29" type="conventional"  from="start1" to="end1" depart="259.012696" />
    <trip id="start1Toend2_32" type="conventional"  from="start1" to="end2" depart="261.812757" />
    <trip id="start2Toend2_35" type="conventional"  from="start2" to="end2" depart="263.278526" />
    <trip id="start2Toend2_36" type="conventional"  from="start2" to="end2" depart="266.072445" />
    <trip id="start2Toend2_37" type="conventional"  from="start2" to="end2" depart="268.788222" />
    <trip id="start2Toend2_38" type="conventional"  from="start2" to="end2" depart="272.921608" />
    <trip id="start2Toend1_33" type="conventional"  from="start2" to="end1" depart="275.018715" />
    <trip id="start1Toend2_33" type="conventional"  from="start1" to="end2" depart="275.073502" />
    <trip id="start1Toend2_34" type="conventional"  from="start1" to="end2" depart="276.629832" />
    <trip id="start1Toend2_35" type="conventional"  from="start1" to="end2" depart="277.871291" />
    <trip id="start2Toend2_39" type="conventional"  from="start2" to="end2" depart="278.268072" />
    <trip id="start1Toend1_30" type="conventional"  from="start1" to="end1" depart="278.595388" />
    <trip id="start1Toend1_31" type="conventional"  from="start1" to="end1" depart="279.030017" />
    <trip id="start1Toend1_32" type="conventional"  from="start1" to="end1" depart="280.814074" />
    <trip id="start2Toend1_34" type="conventional"  from="start2" to="end1" depart="284.757386" />
    <trip id="start2Toend2_40" type="conventional"  from="start2" to="end2" depart="286.210176" />
    <trip id="start2Toend2_41" type="conventional"  from="start2" to="end2" depart="288.331776" />
    <trip id="start2Toend2_42" type="conventional"  from="start2" to="end2" depart="291.931227" />
    <trip id="start1Toend1_33" type="conventional"  from="start1" to="end1" depart="292.066797" />
    <trip id="start1Toend2_36" type="conventional"  from="start1" to="end2" depart="295.283856" />
    <trip id="start1Toend2_37" type="conventional"  from="start1" to="end2" depart="296.365508" />
    <trip id="start2Toend1_35" type="conventional"  from="start2" to="end1" depart="297.001436" />
    <trip id="start1Toend2_38" type="conventional"  from="start1" to="end2" depart="299.005441" />
    <trip id="start2Toend2_43" type="conventional"  from="start2" to="end2" depart="299.241739" />
    <trip id="start2Toend1_36" type="conventional"  from="start2" to="end1" depart="299.306470" />
    <trip id="start1Toend2_39" type="conventional"  from="start1" to="end2" depart="299.339012" />
    <trip id="start2Toend1_37" type="conventional"  from="start2" to="end1" depart="299.983422" />
    <trip id="start1Toend2_40" type="conventional"  from="start1" to="end2" depart="300.114741" />
    <trip id="start1Toend1_34" type="conventional"  from="start1" to="end1" depart="301.419467" />
    <trip id="start1Toend1_35" type="conventional"  from="start1" to="end1" depart="308.801655" />
    <trip id="start1Toend1_36" type="conventional"  from="start1" to="end1" depart="308.987056" />
    <trip id="start2Toend2_44" type="conventional"  from="start2" to="end2" depart="311.452265" />
    <trip id="start2Toend1_38" type="conventional"  from="start2" to="end1" depart="312.706308" />
    <trip id="start2Toend1_39" type="conventional"  from="start2" to="end1" depart="313.960509" />
    <trip id="start2Toend2_45" type="conventional"  from="start2" to="end2" depart="314.380120" />
    <trip id="start1Toend2_41" type="conventional"  from="start1" to="end2" depart="315.174145" />
    <trip id="start1Toend1_37" type="conventional"  from="start1" to="end1" depart="320.009141" />
    <trip id="start2Toend1_40" type="conventional"  from="start2" to="end1" depart="322.536642" />
    <trip id="start1Toend1_38" type="conventional"  from="start1" to="end1" depart="324.470943" />
    <trip id="start1Toend2_42" type="conventional"  from="start1" to="end2" depart="324.523172" />
    <trip id="start2Toend2_46" type="conventional"  from="start2" to="end2" depart="327.844974" />
    <trip id="start2Toend1_41" type="conventional"  from="start2" to="end1" depart="328.836570" />
    <trip id="start2Toend2_47" type="conventional"  from="start2" to="end2" depart="331.865954" />
    <trip id="start2Toend2_48" type="conventional"  from="start2" to="end2" depart="333.119123" />
    <trip id="start2Toend2_49" type="conventional"  from="start2" to="end2" depart="337.760885" />
    <trip id="start2Toend1_42" type="conventional"  from="start2" to="end1" depart="341.956278" />
    <trip id="start2Toend1_43" type="conventional"  from="start2" to="end1" depart="343.334407" />
    <trip id="start2Toend2_50" type="conventional"  from="start2" to="end2" depart="345.680187" />
    <trip id="start1Toend2_43" type="conventional"  from="start1" to="end2" depart="345.946358" />
    <trip id="start2Toend2_51" type="conventional"  from="start2" to="end2" depart="351.332535" />
    <trip id="start2Toend2_52" type="conventional"  from="start2" to="end2" depart="359.066913" />
    <trip id="start1Toend1_39" type="conventional"  from="start1" to="end1" depart="359.425463" />
    <trip id="start1Toend2_44" type="conventional"  from="start1" to="end2" depart="362.838097" />
    <trip id="start1Toend1_40" type="conventional"  from="start1" to="end1" depart="363.775388" />
    <trip id="start2Toend1_44" type="conventional"  from="start2" to="end1" depart="365.054112" />
    <trip id="start2Toend2_53" type="conventional"  from="start2" to="end2" depart="367.036450" />
    <trip id="start1Toend2_45" type="conventional"  from="start1" to="end2" depart="367.061218" />
    <trip id="start2Toend2_54" type="conventional"  from="start2" to="end2" depart="368.756693" />
    <trip id="start2Toend1_45" type="conventional"  from="start2" to="end1" depart="371.609574" />
    <trip id="start1Toend1_41" type="conventional"  from="start1" to="end1" depart="374.384711" />
    <trip id="start1Toend1_42" type="conventional"  from="start1" to="end1" depart="376.266531" />
    <trip id="start2Toend2_55" type="conventional"  from="start2" to="end2" depart="376.646479" />
    <trip id="start1Toend1_43" type="conventional"  from="start1" to="end1" depart="376.775364" />
    <trip id="start1Toend2_46" type="conventional"  from="start1" to="end2" depart="378.182804" />
    <trip id="start1Toend2_47" type="conventional"  from="start1" to="end2" depart="383.482655" />
    <trip id="start2Toend1_46" type="conventional"  from="start2" to="end1" depart="384.261534" />
    <trip id="start2Toend2_56" type="conventional"  from="start2" to="end2" depart="385.812039" />
    <trip id="start1Toend1_44" type="conventional"  from="start1" to="end1" depart="391.049727" />
    <trip id="start2Toend2_57" type="conventional"  from="start2" to="end2" depart="391.135262" />
    <trip id="start1Toend2_48" type="conventional"  from="start1" to="end2" depart="392.410252" />
    <trip id="start2Toend1_47" type="conventional"  from="start2" to="end1" depart="392.692090" />
    <trip id="start2Toend2_58" type="conventional"  from="start2" to="end2" depart="398.619192" />
    <trip id="start1Toend2_49" type="conventional"  from="start1" to="end2" depart="401.266427" />
    <trip id="start1Toend2_50" type="conventional"  from="start1" to="end2" depart="402.274353" />
    <trip id="start2Toend2_59" type="conventional"  from="start2" to="end2" depart="408.496043" />
    <trip id="start1Toend1_45" type="conventional"  from="start1" to="end1" depart="411.162255" />
    <trip id="start1Toend2_51" type="conventional"  from="start1" to="end2" depart="418.731161" />
    <trip id="start1Toend2_52" type="conventional"  from="start1" to="end2" depart="419.292078" />
    <trip id="start1Toend1_46" type="conventional"  from="start1" to="end1" depart="420.288865" />
    <trip id="start2Toend2_60" type="conventional"  from="start2" to="end2" depart="420.398974" />
    <trip id="start2Toend1_48" type="conventional"  from="start2" to="end1" depart="420.795932" />
    <trip id="start1Toend1_47" type="conventional"  from="start1" to="end1" depart="423.115547" />
    <trip id="start1Toend2_53" type="conventional"  from="start1" to="end2" depart="425.417799" />
    <trip id="start2Toend1_49" type="conventional"  from="start2" to="end1" depart="427.297075" />
    <trip id="start1Toend2_54" type="conventional"  from="start1" to="end2" depart="432.394702" />
    <trip id="start2Toend2_61" type="conventional"  from="start2" to="end2" depart="437.513895" />
    <trip id="start1Toend2_55" type="conventional"  from="start1" to="end2" depart="437.611367" />
    <trip id="start1Toend2_56" type="conventional"  from="start1" to="end2" depart="438.863733" />
    <trip id="start1Toend1_48" type="conventional"  from="start1" to="end1" depart="441.083169" />
    <trip id="start2Toend1_50" type="conventional"  from="start2" to="end1" depart="443.934731" />
    <trip id="start2Toend1_51" type="conventional"  from="start2" to="end1" depart="444.841445" />
    <trip id="start2Toend2_62" type="conventional"  from="start2" to="end2" depart="447.465648" />
    <trip id="start2Toend2_63" type="conventional"  from="start2" to="end2" depart="452.645604" />
    <trip id="start1Toend2_57" type="conventional"  from="start1" to="end2" depart="453.652725" />
    <trip id="start1Toend1_49" type="conventional"  from="start1" to="end1" depart="454.882016" />
    <trip id="start1Toend2_58" type="conventional"  from="start1" to="end2" depart="459.213488" />
    <trip id="start2Toend1_52" type="conventional"  from="start2" to="end1" depart="460.747699" />
    <trip id="start2Toend2_64" type="conventional"  from="start2" to="end2" depart="460.948421" />
    <trip id="start1Toend1_50" type="conventional"  from="start1" to="end1" depart="465.052129" />
    <trip id="start1Toend2_59" type="conventional"  from="start1" to="end2" depart="465.162723" />
    <trip id="start1Toend2_60" type="conventional"  from="start1" to="end2" depart="465.532884" />
    <trip id="start2Toend1_53" type="conventional"  from="start2" to="end1" depart="465.734336" />
    <trip id="start1Toend1_51" type="conventional"  from="start1" to="end1" depart="468.424097" />
    <trip id="start1Toend2_61" type="conventional"  from="start1" to="end2" depart="470.107187" />
    <trip id="start2Toend1_54" type="conventional"  from="start2" to="end1" depart="472.950105" />
    <trip id="start2Toend2_65" type="conventional"  from="start2" to="end2" depart="472.978727" />
    <trip id="start1Toend2_62" type="conventional"  from="start1" to="end2" depart="473.633430" />
    <trip id="start2Toend1_55" type="conventional"  from="start2" to="end1" depart="476.632453" />
    <trip id="start2Toend1_56" type="conventional"  from="start2" to="end1" depart="478.659808" />
    <trip id="start1Toend2_63" type="conventional"  from="start1" to="end2" depart="481.230181" />
    <trip id="start2Toend1_57" type="conventional"  from="start2" to="end1" depart="483.865282" />
    <trip id="start2Toend1_58" type="conventional"  from="start2" to="end1" depart="484.370569" />
    <trip id="start1Toend1_52" type="conventional"  from="start1" to="end1" depart="488.647106" />
    <trip id="start2Toend1_59" type="conventional"  from="start2" to="end1" depart="489.637568" />
    <trip id="start2Toend1_60" type="conventional"  from="start2" to="end1" depart="492.046231" />
    <trip id="start1Toend2_64" type="conventional"  from="start1" to="end2" depart="494.894816" />
    <trip id="start2Toend2_66" type="conventional"  from="start2" to="end2" depart="496.424147" />
    <trip id="start1Toend1_53" type="conventional"  from="start1" to="end1" depart="497.824447" />
    <trip id="start2Toend1_61" type="conventional"  from="start2" to="end1" depart="500.974259" />
    <trip id="start1Toend1_54" type="conventional"  from="start1" to="end1" depart="503.160482" />
    <trip id="start2Toend2_67" type="conventional"  from="start2" to="end2" depart="503.264908" />
    <trip id="start1Toend2_65" type="conventional"  from="start1" to="end2" depart="503.367501" />
    <trip id="start2Toend2_68" type="conventional"  from="start2" to="end2" depart="508.867911" />
    <trip id="start2Toend1_62" type="conventional"  from="start2" to="end1" depart="510.336354" />
    <trip id="start2Toend1_63" type="conventional"  from="start2" to="end1" depart="510.435161" />
    <trip id="start2Toend2_69" type="conventional"  from="start2" to="end2" depart="511.895193" />
    <trip id="start2Toend2_70" type="conventional"  from="start2" to="end2" depart="512.726289" />
    <trip id="start1Toend2_66" type="conventional"  from="start1" to="end2" depart="512.826637" />
    <trip id="start2Toend1_64" type="conventional"  from="start2" to="end1" depart="514.752636" />
    <trip id="start1Toend1_55" type="conventional"  from="start1" to="end1" depart="514.848497" />
    <trip id="start2Toend1_65" type="conventional"  from="start2" to="end1" depart="516.389627" />
    <trip id="start1Toend2_67" type="conventional"  from="start1" to="end2" depart="516.579710" />
    <trip id="start2Toend2_71" type="conventional"  from="start2" to="end2" depart="517.800181" />
    <trip id="start2Toend1_66" type="conventional"  from="start2" to="end1" depart="521.778248" />
    <trip id="start2Toend1_67" type="conventional"  from="start2" to="end1" depart="522.157512" />
    <trip id="start2Toend1_68" type="conventional"  from="start2" to="end1" depart="522.429589" />
    <trip id="start2Toend1_69" type="conventional"  from="start2" to="end1" depart="523.801596" />
    <trip id="start1Toend2_68" type="conventional"  from="start1" to="end2" depart="527.624758" />
    <trip id="start2Toend2_72" type="conventional"  from="start2" to="end2" depart="528.482988" />
    <trip id="start1Toend2_69" type="conventional"  from="start1" to="end2" depart="529.754205" />
    <trip id="start2Toend2_73" type="conventional"  from="start2" to="end2" depart="534.077760" />
    <trip id="start1Toend2_70" type="conventional"  from="start1" to="end2" depart="535.047848" />
    <trip id="start1Toend1_56" type="conventional"  from="start1" to="end1" depart="537.934030" />
    <trip id="start1Toend1_57" type="conventional"  from="start1" to="end1" depart="539.594111" />
    <trip id="start2Toend2_74" type="conventional"  from="start2" to="end2" depart="544.082068" />
    <trip id="start2Toend1_70" type="conventional"  from="start2" to="end1" depart="546.706941" />
    <trip id="start2Toend2_75" type="conventional"  from="start2" to="end2" depart="550.996730" />
    <trip id="start1Toend2_71" type="conventional"  from="start1" to="end2" depart="553.278907" />
    <trip id="start2Toend2_76" type="conventional"  from="start2" to="end2" depart="555.184392" />
    <trip id="start1Toend2_72" type="conventional"  from="start1" to="end2" depart="558.132732" />
    <trip id="start2Toend2_77" type="conventional"  from="start2" to="end2" depart="563.257324" />
    <trip id="start1Toend1_58" type="conventional"  from="start1" to="end1" depart="563.734894" />