<?xml version="1.0" encoding="UTF-8"?>

<routes>

	<route id="route0" edges="start1 end1" />
    <route id="route1" edges="start1 end2" />
    <route id="route2" edges="start2 end1" />
    <route id="route3" edges="start2 end2" />


    <vType id="conventional" vClass="passenger" tau="5.5" minGap="7.5" carFollowModel="IDM" maxSpeed="40.00"/>
    <vType id="conventional_human" vClass="passenger" tau="5.5" minGap="7.5" carFollowModel="IDM" maxSpeed="40.00" color="52,128,235"/>
    <!--vType id="conventional_human" vClass="passenger" tau="3.5" minGap="5.5" carFollowModel="IDM" maxSpeed="28.00" color="52,128,235"/-->
    <vType id="non_merging" vClass="passenger" tau="5.5" minGap="7.5" carFollowModel="IDM" maxSpeed="40.00"/>
    <vType id="merging" vClass="passenger" carFollowModel="IDM" emergencyDecel="4.5" length="5" tau="0.1" maxSpeed="40.00" color="1,1,0" accel="10.3" decel="1.7" sigma="0.0" minGap="2.0"/>
    <!--vType id="connected" vClass="passenger" tau="2.5" minGap="5.5" carFollowModel="IDM" maxSpeed="28.00" lcCooperative="0.0" color="1,1,0" lcStrategic="1.0" accel="3.0" decel="1.5" emergencyDecel="4.5" lcSpeedGain="0.3" sigma="0.0" lcKeepRight="0.3"-->
    <vType id="connected" vClass="passenger" tau="5.5" minGap="7.5" carFollowModel="IDM" maxSpeed="1.00" emergencyDecel="4.5"/>
    <vType id="routeByDistance" maxSpeed="1"/>
    <vType id="connected_pCatchupFollower" vClass="passenger" carFollowModel="IDM" emergencyDecel="4.5" length="5" tau="0.1" maxSpeed="40.00" color="1,1,0" accel="10.3" decel="1.7" sigma="0.0" minGap="2.0"/>
    <vType id="connected_pCatchup" vClass="passenger" tau="0.1" carFollowModel="IDM" emergencyDecel="4.5" maxSpeed="40.00" color="0,0.8,0.3" accel="10.3" decel="1.7" sigma="0.0" minGap="2.0"/>
    <vType id="connected_pFollower" vClass="passenger" tau="0.1" carFollowModel="IDM" maxSpeed="40.00" color="1,1,0" accel="10.3" decel="1.7" sigma="0.0"  minGap="2.0" emergencyDecel="4.5"/>
    <vType id="connected_pLeader" vClass="passenger" length="5" carFollowModel="IDM" maxSpeed="40.00" lcCooperative="0.0" color="1,1,0" lcStrategic="1.0" accel="13.0" decel="1.5" emergencyDecel="4.5" lcSpeedGain="0.3" sigma="0.0" lcKeepRight="0.3"/>

    
	
    <trip id="start1Toend1_0" type="conventional"  from="start1" to="end1" depart="0.000000" />
    <trip id="start2Toend1_0" type="conventional"  from="start2" to="end1" depart="0.000000" />
    <trip id="start1Toend1_1" type="conventional"  from="start1" to="end1" depart="3.181262" />
    <trip id="start2Toend1_1" type="conventional"  from="start2" to="end1" depart="6.360245" />
    <trip id="start2Toend1_2" type="conventional"  from="start2" to="end1" depart="6.992795" />
    <trip id="start1Toend1_2" type="conventional"  from="start1" to="end1" depart="9.288347" />
    <trip id="start1Toend2_0" type="conventional"  from="start1" to="end2" depart="10.000000" />
    <trip id="start2Toend2_0" type="conventional"  from="start2" to="end2" depart="10.000000" />
    <trip id="start2Toend1_3" type="conventional"  from="start2" to="end1" depart="12.614000" />
    <trip id="start2Toend1_4" type="conventional"  from="start2" to="end1" depart="13.971712" />
    <trip id="start1Toend2_1" type="conventional"  from="start1" to="end2" depart="22.551936" />
    <trip id="start2Toend2_1" type="conventional"  from="start2" to="end2" depart="26.663702" />
    <trip id="start1Toend1_3" type="conventional"  from="start1" to="end1" depart="27.111410" />
    <trip id="start2Toend1_5" type="conventional"  from="start2" to="end1" depart="27.125567" />
    <trip id="start1Toend1_4" type="conventional"  from="start1" to="end1" depart="33.032777" />
    <trip id="start2Toend1_6" type="conventional"  from="start2" to="end1" depart="33.424032" />
    <trip id="start1Toend2_2" type="conventional"  from="start1" to="end2" depart="34.605262" />
    <trip id="start2Toend1_7" type="conventional"  from="start2" to="end1" depart="36.050194" />
    <trip id="start1Toend1_5" type="conventional"  from="start1" to="end1" depart="39.670002" />
    <trip id="start1Toend2_3" type="conventional"  from="start1" to="end2" depart="41.216266" />
    <trip id="start1Toend1_6" type="conventional"  from="start1" to="end1" depart="44.257197" />
    <trip id="start1Toend2_4" type="conventional"  from="start1" to="end2" depart="44.460454" />
    <trip id="start1Toend2_5" type="conventional"  from="start1" to="end2" depart="47.576170" />
    <trip id="start2Toend1_8" type="conventional"  from="start2" to="end1" depart="48.545206" />
    <trip id="start2Toend2_2" type="conventional"  from="start2" to="end2" depart="49.611364" />
    <trip id="start2Toend2_3" type="conventional"  from="start2" to="end2" depart="52.360096" />
    <trip id="start2Toend2_4" type="conventional"  from="start2" to="end2" depart="52.604073" />
    <trip id="start1Toend2_6" type="conventional"  from="start1" to="end2" depart="56.444915" />
    <trip id="start2Toend2_5" type="conventional"  from="start2" to="end2" depart="58.016195" />
    <trip id="start1Toend1_7" type="conventional"  from="start1" to="end1" depart="59.992235" />
    <trip id="start2Toend2_6" type="conventional"  from="start2" to="end2" depart="61.820120" />
    <trip id="start2Toend2_7" type="conventional"  from="start2" to="end2" depart="64.076153" />
    <trip id="start1Toend1_8" type="conventional"  from="start1" to="end1" depart="66.620796" />
    <trip id="start2Toend2_8" type="conventional"  from="start2" to="end2" depart="68.123621" />
    <trip id="start1Toend1_9" type="conventional"  from="start1" to="end1" depart="69.440848" />
    <trip id="start2Toend1_9" type="conventional"  from="start2" to="end1" depart="69.903114" />
    <trip id="start1Toend1_10" type="conventional"  from="start1" to="end1" depart="71.301978" />
    <trip id="start2Toend2_9" type="conventional"  from="start2" to="end2" depart="72.040279" />
    <trip id="start1Toend2_7" type="conventional"  from="start1" to="end2" depart="78.516161" />
    <trip id="start2Toend2_10" type="conventional"  from="start2" to="end2" depart="80.087604" />
    <trip id="start1Toend2_8" type="conventional"  from="start1" to="end2" depart="81.903063" />
    <trip id="start2Toend2_11" type="conventional"  from="start2" to="end2" depart="83.160786" />
    <trip id="start2Toend2_12" type="conventional"  from="start2" to="end2" depart="90.299550" />
    <trip id="start2Toend2_13" type="conventional"  from="start2" to="end2" depart="90.444398" />
    <trip id="start2Toend2_14" type="conventional"  from="start2" to="end2" depart="95.416640" />
    <trip id="start1Toend1_11" type="conventional"  from="start1" to="end1" depart="95.551795" />
    <trip id="start2Toend2_15" type="conventional"  from="start2" to="end2" depart="97.232210" />
    <trip id="start1Toend1_12" type="conventional"  from="start1" to="end1" depart="97.521771" />
    <trip id="start2Toend1_10" type="conventional"  from="start2" to="end1" depart="97.522935" />
    <trip id="start1Toend1_13" type="conventional"  from="start1" to="end1" depart="103.527701" />
    <trip id="start1Toend1_14" type="conventional"  from="start1" to="end1" depart="103.829150" />
    <trip id="start1Toend2_9" type="conventional"  from="start1" to="end2" depart="105.293468" />
    <trip id="start1Toend1_15" type="conventional"  from="start1" to="end1" depart="115.717062" />
    <trip id="start1Toend1_16" type="conventional"  from="start1" to="end1" depart="115.747543" />
    <trip id="start1Toend2_10" type="conventional"  from="start1" to="end2" depart="117.037885" />
    <trip id="start1Toend2_11" type="conventional"  from="start1" to="end2" depart="117.078034" />
    <trip id="start2Toend1_11" type="conventional"  from="start2" to="end1" depart="118.159747" />
    <trip id="start2Toend2_16" type="conventional"  from="start2" to="end2" depart="123.730192" />
    <trip id="start1Toend2_12" type="conventional"  from="start1" to="end2" depart="124.620691" />
    <trip id="start1Toend1_17" type="conventional"  from="start1" to="end1" depart="127.947860" />
    <trip id="start2Toend1_12" type="conventional"  from="start2" to="end1" depart="128.314908" />
    <trip id="start1Toend1_18" type="conventional"  from="start1" to="end1" depart="130.948776" />
    <trip id="start1Toend1_19" type="conventional"  from="start1" to="end1" depart="135.573904" />
    <trip id="start1Toend2_13" type="conventional"  from="start1" to="end2" depart="138.434358" />
    <trip id="start1Toend2_14" type="conventional"  from="start1" to="end2" depart="144.622329" />
    <trip id="start1Toend1_20" type="conventional"  from="start1" to="end1" depart="144.716579" />
    <trip id="start1Toend1_21" type="conventional"  from="start1" to="end1" depart="144.857579" />
    <trip id="start1Toend2_15" type="conventional"  from="start1" to="end2" depart="144.945159" />
    <trip id="start1Toend2_16" type="conventional"  from="start1" to="end2" depart="145.632785" />
    <trip id="start2Toend2_17" type="conventional"  from="start2" to="end2" depart="147.092009" />
    <trip id="start2Toend1_13" type="conventional"  from="start2" to="end1" depart="147.374463" />
    <trip id="start2Toend2_18" type="conventional"  from="start2" to="end2" depart="149.101233" />
    <trip id="start1Toend2_17" type="conventional"  from="start1" to="end2" depart="150.772433" />
    <trip id="start1Toend2_18" type="conventional"  from="start1" to="end2" depart="152.026708" />
    <trip id="start2Toend2_19" type="conventional"  from="start2" to="end2" depart="158.190720" />
    <trip id="start1Toend1_22" type="conventional"  from="start1" to="end1" depart="158.571618" />
    <trip id="start2Toend1_14" type="conventional"  from="start2" to="end1" depart="160.146121" />
    <trip id="start2Toend1_15" type="conventional"  from="start2" to="end1" depart="163.060079" />
    <trip id="start1Toend2_19" type="conventional"  from="start1" to="end2" depart="163.099227" />
    <trip id="start2Toend1_16" type="conventional"  from="start2" to="end1" depart="163.838945" />
    <trip id="start2Toend2_20" type="conventional"  from="start2" to="end2" depart="164.174051" />
    <trip id="start2Toend1_17" type="conventional"  from="start2" to="end1" depart="164.254207" />
    <trip id="start2Toend2_21" type="conventional"  from="start2" to="end2" depart="165.211323" />
    <trip id="start1Toend2_20" type="conventional"  from="start1" to="end2" depart="166.888824" />
    <trip id="start2Toend2_22" type="conventional"  from="start2" to="end2" depart="172.676834" />
    <trip id="start2Toend1_18" type="conventional"  from="start2" to="end1" depart="174.515549" />
    <trip id="start1Toend1_23" type="conventional"  from="start1" to="end1" depart="181.915612" />
    <trip id="start2Toend1_19" type="conventional"  from="start2" to="end1" depart="182.662441" />
    <trip id="start2Toend2_23" type="conventional"  from="start2" to="end2" depart="184.937135" />
    <trip id="start2Toend2_24" type="conventional"  from="start2" to="end2" depart="187.117385" />
    <trip id="start1Toend1_24" type="conventional"  from="start1" to="end1" depart="187.432365" />
    <trip id="start2Toend2_25" type="conventional"  from="start2" to="end2" depart="189.419055" />
    <trip id="start2Toend2_26" type="conventional"  from="start2" to="end2" depart="192.063909" />
    <trip id="start2Toend2_27" type="conventional"  from="start2" to="end2" depart="192.952149" />
    <trip id="start1Toend2_21" type="conventional"  from="start1" to="end2" depart="197.256086" />
    <trip id="start2Toend1_20" type="conventional"  from="start2" to="end1" depart="197.446607" />
    <trip id="start1Toend1_25" type="conventional"  from="start1" to="end1" depart="200.903359" />
    <trip id="start1Toend1_26" type="conventional"  from="start1" to="end1" depart="206.724010" />
    <trip id="start2Toend2_28" type="conventional"  from="start2" to="end2" depart="209.417291" />
    <trip id="start2Toend2_29" type="conventional"  from="start2" to="end2" depart="211.387527" />
    <trip id="start1Toend1_27" type="conventional"  from="start1" to="end1" depart="212.231731" />
    <trip id="start2Toend2_30" type="conventional"  from="start2" to="end2" depart="213.767505" />
    <trip id="start2Toend2_31" type="conventional"  from="start2" to="end2" depart="214.694932" />
    <trip id="start2Toend1_21" type="conventional"  from="start2" to="end1" depart="218.096126" />
    <trip id="start1Toend1_28" type="conventional"  from="start1" to="end1" depart="219.198312" />
    <trip id="start2Toend2_32" type="conventional"  from="start2" to="end2" depart="220.420622" />
    <trip id="start1Toend1_29" type="conventional"  from="start1" to="end1" depart="223.765099" />
    <trip id="start2Toend2_33" type="conventional"  from="start2" to="end2" depart="224.754042" />
    <trip id="start2Toend1_22" type="conventional"  from="start2" to="end1" depart="230.364991" />
    <trip id="start2Toend1_23" type="conventional"  from="start2" to="end1" depart="233.870129" />
    <trip id="start2Toend2_34" type="conventional"  from="start2" to="end2" depart="234.012907" />
    <trip id="start1Toend2_22" type="conventional"  from="start1" to="end2" depart="234.268044" />
    <trip id="start2Toend1_24" type="conventional"  from="start2" to="end1" depart="236.245335" />
    <trip id="start2Toend1_25" type="conventional"  from="start2" to="end1" depart="237.231749" />
    <trip id="start1Toend1_30" type="conventional"  from="start1" to="end1" depart="242.098351" />
    <trip id="start1Toend2_23" type="conventional"  from="start1" to="end2" depart="242.732479" />
    <trip id="start1Toend1_31" type="conventional"  from="start1" to="end1" depart="243.896672" />
    <trip id="start2Toend1_26" type="conventional"  from="start2" to="end1" depart="244.021633" />
    <trip id="start2Toend1_27" type="conventional"  from="start2" to="end1" depart="244.939065" />
    <trip id="start1Toend2_24" type="conventional"  from="start1" to="end2" depart="247.460611" />
    <trip id="start2Toend2_35" type="conventional"  from="start2" to="end2" depart="249.288371" />
    <trip id="start2Toend2_36" type="conventional"  from="start2" to="end2" depart="251.185785" />
    <trip id="start1Toend1_32" type="conventional"  from="start1" to="end1" depart="252.701692" />
    <trip id="start1Toend1_33" type="conventional"  from="start1" to="end1" depart="255.853454" />
    <trip id="start1Toend1_34" type="conventional"  from="start1" to="end1" depart="258.768154" />
    <trip id="start1Toend1_35" type="conventional"  from="start1" to="end1" depart="260.304015" />
    <trip id="start2Toend1_28" type="conventional"  from="start2" to="end1" depart="260.633821" />
    <trip id="start2Toend1_29" type="conventional"  from="start2" to="end1" depart="264.042945" />
    <trip id="start1Toend2_25" type="conventional"  from="start1" to="end2" depart="265.863072" />
    <trip id="start1Toend1_36" type="conventional"  from="start1" to="end1" depart="267.847140" />
    <trip id="start2Toend1_30" type="conventional"  from="start2" to="end1" depart="268.225517" />
    <trip id="start2Toend2_37" type="conventional"  from="start2" to="end2" depart="269.797789" />
    <trip id="start1Toend1_37" type="conventional"  from="start1" to="end1" depart="273.417916" />
    <trip id="start2Toend2_38" type="conventional"  from="start2" to="end2" depart="279.249814" />
    <trip id="start2Toend1_31" type="conventional"  from="start2" to="end1" depart="279.558412" />
    <trip id="start2Toend1_32" type="conventional"  from="start2" to="end1" depart="279.596085" />
    <trip id="start1Toend1_38" type="conventional"  from="start1" to="end1" depart="279.799564" />
    <trip id="start1Toend1_39" type="conventional"  from="start1" to="end1" depart="284.031286" />
    <trip id="start2Toend1_33" type="conventional"  from="start2" to="end1" depart="285.469417" />
    <trip id="start1Toend1_40" type="conventional"  from="start1" to="end1" depart="286.777797" />
    <trip id="start1Toend1_41" type="conventional"  from="start1" to="end1" depart="289.313348" />
    <trip id="start1Toend1_42" type="conventional"  from="start1" to="end1" depart="290.691563" />
    <trip id="start1Toend1_43" type="conventional"  from="start1" to="end1" depart="296.939800" />
    <trip id="start1Toend2_26" type="conventional"  from="start1" to="end2" depart="298.555195" />
    <trip id="start1Toend1_44" type="conventional"  from="start1" to="end1" depart="298.877308" />
    <trip id="start2Toend2_39" type="conventional"  from="start2" to="end2" depart="299.532136" />
    <trip id="start1Toend2_27" type="conventional"  from="start1" to="end2" depart="300.155763" />
    <trip id="start1Toend1_45" type="conventional"  from="start1" to="end1" depart="302.248734" />
    <trip id="start2Toend2_40" type="conventional"  from="start2" to="end2" depart="303.279127" />
    <trip id="start2Toend2_41" type="conventional"  from="start2" to="end2" depart="307.763576" />
    <trip id="start2Toend1_34" type="conventional"  from="start2" to="end1" depart="310.441015" />
    <trip id="start2Toend2_42" type="conventional"  from="start2" to="end2" depart="310.953683" />
    <trip id="start2Toend2_43" type="conventional"  from="start2" to="end2" depart="312.997214" />
    <trip id="start2Toend2_44" type="conventional"  from="start2" to="end2" depart="313.373184" />
    <trip id="start2Toend2_45" type="conventional"  from="start2" to="end2" depart="315.212019" />
    <trip id="start2Toend1_35" type="conventional"  from="start2" to="end1" depart="316.611726" />
    <trip id="start2Toend2_46" type="conventional"  from="start2" to="end2" depart="318.968875" />
    <trip id="start2Toend1_36" type="conventional"  from="start2" to="end1" depart="319.856862" />
    <trip id="start2Toend2_47" type="conventional"  from="start2" to="end2" depart="319.871086" />
    <trip id="start2Toend2_48" type="conventional"  from="start2" to="end2" depart="322.564488" />
    <trip id="start2Toend1_37" type="conventional"  from="start2" to="end1" depart="324.346997" />
    <trip id="start1Toend2_28" type="conventional"  from="start1" to="end2" depart="326.527750" />
    <trip id="start1Toend2_29" type="conventional"  from="start1" to="end2" depart="327.628474" />
    <trip id="start2Toend1_38" type="conventional"  from="start2" to="end1" depart="328.915874" />
    <trip id="start1Toend2_30" type="conventional"  from="start1" to="end2" depart="329.703016" />
    <trip id="start1Toend1_46" type="conventional"  from="start1" to="end1" depart="330.556526" />
    <trip id="start2Toend2_49" type="conventional"  from="start2" to="end2" depart="330.966639" />
    <trip id="start1Toend1_47" type="conventional"  from="start1" to="end1" depart="334.466035" />
    <trip id="start1Toend2_31" type="conventional"  from="start1" to="end2" depart="335.417868" />
    <trip id="start1Toend1_48" type="conventional"  from="start1" to="end1" depart="335.836594" />
    <trip id="start2Toend1_39" type="conventional"  from="start2" to="end1" depart="338.849325" />
    <trip id="start1Toend2_32" type="conventional"  from="start1" to="end2" depart="339.189678" />
    <trip id="start2Toend1_40" type="conventional"  from="start2" to="end1" depart="340.298771" />
    <trip id="start2Toend1_41" type="conventional"  from="start2" to="end1" depart="340.445739" />
    <trip id="start1Toend2_33" type="conventional"  from="start1" to="end2" depart="340.591868" />
    <trip id="start1Toend1_49" type="conventional"  from="start1" to="end1" depart="340.751839" />
    <trip id="start1Toend1_50" type="conventional"  from="start1" to="end1" depart="341.264562" />
    <trip id="start1Toend1_51" type="conventional"  from="start1" to="end1" depart="341.785130" />
    <trip id="start1Toend1_52" type="conventional"  from="start1" to="end1" depart="341.934421" />
    <trip id="start2Toend2_50" type="conventional"  from="start2" to="end2" depart="343.346078" />
    <trip id="start2Toend2_51" type="conventional"  from="start2" to="end2" depart="345.860668" />
    <trip id="start2Toend2_52" type="conventional"  from="start2" to="end2" depart="346.297922" />
    <trip id="start1Toend2_34" type="conventional"  from="start1" to="end2" depart="346.455469" />
    <trip id="start2Toend1_42" type="conventional"  from="start2" to="end1" depart="347.193270" />
    <trip id="start1Toend1_53" type="conventional"  from="start1" to="end1" depart="348.761547" />
    <trip id="start1Toend1_54" type="conventional"  from="start1" to="end1" depart="350.341409" />
    <trip id="start2Toend2_53" type="conventional"  from="start2" to="end2" depart="351.629424" />
    <trip id="start2Toend1_43" type="conventional"  from="start2" to="end1" depart="355.741704" />
    <trip id="start2Toend1_44" type="conventional"  from="start2" to="end1" depart="356.428765" />
    <trip id="start2Toend1_45" type="conventional"  from="start2" to="end1" depart="357.147122" />
    <trip id="start1Toend2_35" type="conventional"  from="start1" to="end2" depart="358.640568" />
    <trip id="start2Toend2_54" type="conventional"  from="start2" to="end2" depart="359.694689" />
    <trip id="start1Toend1_55" type="conventional"  from="start1" to="end1" depart="359.831437" />
    <trip id="start1Toend1_56" type="conventional"  from="start1" to="end1" depart="359.941704" />
    <trip id="start2Toend2_55" type="conventional"  from="start2" to="end2" depart="361.427965" />
    <trip id="start2Toend1_46" type="conventional"  from="start2" to="end1" depart="362.925230" />
    <trip id="start2Toend1_47" type="conventional"  from="start2" to="end1" depart="370.330087" />
    <trip id="start2Toend1_48" type="conventional"  from="start2" to="end1" depart="375.277958" />
    <trip id="start1Toend2_36" type="conventional"  from="start1" to="end2" depart="376.234821" />
    <trip id="start1Toend1_57" type="conventional"  from="start1" to="end1" depart="378.941318" />
    <trip id="start2Toend2_56" type="conventional"  from="start2" to="end2" depart="380.912677" />
    <trip id="start2Toend1_49" type="conventional"  from="start2" to="end1" depart="380.979346" />
    <trip id="start2Toend2_57" type="conventional"  from="start2" to="end2" depart="392.302463" />
    <trip id="start2Toend2_58" type="conventional"  from="start2" to="end2" depart="392.336185" />
    <trip id="start1Toend2_37" type="conventional"  from="start1" to="end2" depart="392.432562" />
    <trip id="start2Toend2_59" type="conventional"  from="start2" to="end2" depart="392.531407" />
    <trip id="start2Toend2_60" type="conventional"  from="start2" to="end2" depart="393.659926" />
    <trip id="start1Toend1_58" type="conventional"  from="start1" to="end1" depart="393.749899" />
    <trip id="start1Toend1_59" type="conventional"  from="start1" to="end1" depart="394.188059" />
    <trip id="start1Toend2_38" type="conventional"  from="start1" to="end2" depart="394.611858" />
    <trip id="start1Toend1_60" type="conventional"  from="start1" to="end1" depart="397.060840" />
    <trip id="start1Toend1_61" type="conventional"  from="start1" to="end1" depart="397.300300" />
    <trip id="start2Toend1_50" type="conventional"  from="start2" to="end1" depart="397.462895" />
    <trip id="start2Toend1_51" type="conventional"  from="start2" to="end1" depart="401.103810" />
    <trip id="start2Toend2_61" type="conventional"  from="start2" to="end2" depart="401.240484" />
    <trip id="start2Toend1_52" type="conventional"  from="start2" to="end1" depart="401.532937" />
    <trip id="start1Toend1_62" type="conventional"  from="start1" to="end1" depart="402.973888" />
    <trip id="start2Toend2_62" type="conventional"  from="start2" to="end2" depart="408.573655" />
    <trip id="start2Toend1_53" type="conventional"  from="start2" to="end1" depart="409.467720" />
    <trip id="start2Toend2_63" type="conventional"  from="start2" to="end2" depart="411.435856" />
    <trip id="start1Toend2_39" type="conventional"  from="start1" to="end2" depart="419.203108" />
    <trip id="start2Toend2_64" type="conventional"  from="start2" to="end2" depart="424.031643" />
    <trip id="start2Toend1_54" type="conventional"  from="start2" to="end1" depart="424.428494" />
    <trip id="start2Toend2_65" type="conventional"  from="start2" to="end2" depart="424.598915" />
    <trip id="start2Toend2_66" type="conventional"  from="start2" to="end2" depart="424.838605" />
    <trip id="start2Toend2_67" type="conventional"  from="start2" to="end2" depart="424.851423" />
    <trip id="start2Toend2_68" type="conventional"  from="start2" to="end2" depart="425.685600" />
    <trip id="start2Toend1_55" type="conventional"  from="start2" to="end1" depart="426.505937" />
    <trip id="start1Toend2_40" type="conventional"  from="start1" to="end2" depart="427.738370" />
    <trip id="start1Toend2_41" type="conventional"  from="start1" to="end2" depart="429.223841" />
    <trip id="start2Toend1_56" type="conventional"  from="start2" to="end1" depart="433.044773" />
    <trip id="start2Toend1_57" type="conventional"  from="start2" to="end1" depart="434.372611" />
    <trip id="start2Toend2_69" type="conventional"  from="start2" to="end2" depart="435.290722" />
    <trip id="start2Toend2_70" type="conventional"  from="start2" to="end2" depart="438.549596" />
    <trip id="start1Toend1_63" type="conventional"  from="start1" to="end1" depart="439.672418" />
    <trip id="start2Toend2_71" type="conventional"  from="start2" to="end2" depart="441.791275" />
    <trip id="start2Toend2_72" type="conventional"  from="start2" to="end2" depart="442.791328" />
    <trip id="start1Toend2_42" type="conventional"  from="start1" to="end2" depart="444.385791" />
    <trip id="start1Toend1_64" type="conventional"  from="start1" to="end1" depart="445.070622" />
    <trip id="start1Toend1_65" type="conventional"  from="start1" to="end1" depart="446.662044" />
    <trip id="start1Toend2_43" type="conventional"  from="start1" to="end2" depart="447.535400" />
    <trip id="start2Toend2_73" type="conventional"  from="start2" to="end2" depart="448.235380" />
    <trip id="start2Toend1_58" type="conventional"  from="start2" to="end1" depart="448.466109" />
    <trip id="start2Toend2_74" type="conventional"  from="start2" to="end2" depart="449.659080" />
    <trip id="start2Toend1_59" type="conventional"  from="start2" to="end1" depart="451.662927" />
    <trip id="start1Toend2_44" type="conventional"  from="start1" to="end2" depart="452.351408" />
    <trip id="start1Toend2_45" type="conventional"  from="start1" to="end2" depart="452.414105" />
    <trip id="start2Toend1_60" type="conventional"  from="start2" to="end1" depart="453.878972" />
    <trip id="start2Toend1_61" type="conventional"  from="start2" to="end1" depart="456.169454" />
    <trip id="start1Toend1_66" type="conventional"  from="start1" to="end1" depart="457.813273" />
    <trip id="start1Toend1_67" type="conventional"  from="start1" to="end1" depart="458.645537" />
    <trip id="start2Toend1_62" type="conventional"  from="start2" to="end1" depart="460.319436" />
    <trip id="start2Toend1_63" type="conventional"  from="start2" to="end1" depart="462.216023" />
    <trip id="start1Toend1_68" type="conventional"  from="start1" to="end1" depart="464.779754" />
    <trip id="start1Toend2_46" type="conventional"  from="start1" to="end2" depart="466.213857" />
    <trip id="start1Toend1_69" type="conventional"  from="start1" to="end1" depart="471.497912" />
    <trip id="start2Toend1_64" type="conventional"  from="start2" to="end1" depart="471.656211" />
    <trip id="start1Toend1_70" type="conventional"  from="start1" to="end1" depart="472.118739" />
    <trip id="start1Toend2_47" type="conventional"  from="start1" to="end2" depart="473.930184" />
    <trip id="start2Toend2_75" type="conventional"  from="start2" to="end2" depart="474.240560" />
    <trip id="start2Toend1_65" type="conventional"  from="start2" to="end1" depart="475.673066" />
    <trip id="start1Toend2_48" type="conventional"  from="start1" to="end2" depart="477.999765" />
    <trip id="start2Toend2_76" type="conventional"  from="start2" to="end2" depart="478.136478" />
    <trip id="start1Toend1_71" type="conventional"  from="start1" to="end1" depart="478.146834" />
    <trip id="start1Toend2_49" type="conventional"  from="start1" to="end2" depart="478.353000" />
    <trip id="start1Toend1_72" type="conventional"  from="start1" to="end1" depart="478.547480" />
    <trip id="start1Toend2_50" type="conventional"  from="start1" to="end2" depart="479.401613" />
    <trip id="start1Toend1_73" type="conventional"  from="start1" to="end1" depart="480.208398" />
    <trip id="start2Toend2_77" type="conventional"  from="start2" to="end2" depart="481.625654" />
    <trip id="start1Toend1_74" type="conventional"  from="start1" to="end1" depart="481.685120" />
    <trip id="start2Toend2_78" type="conventional"  from="start2" to="end2" depart="484.022105" />
    <trip id="start2Toend1_66" type="conventional"  from="start2" to="end1" depart="484.098075" />
    <trip id="start1Toend2_51" type="conventional"  from="start1" to="end2" depart="485.025533" />
    <trip id="start2Toend2_79" type="conventional"  from="start2" to="end2" depart="488.896282" />
    <trip id="start1Toend1_75" type="conventional"  from="start1" to="end1" depart="489.480409" />
    <trip id="start1Toend1_76" type="conventional"  from="start1" to="end1" depart="489.544863" />
    <trip id="start1Toend2_52" type="conventional"  from="start1" to="end2" depart="490.075351" />
    <trip id="start2Toend1_67" type="conventional"  from="start2" to="end1" depart="491.914234" />
    <trip id="start2Toend2_80" type="conventional"  from="start2" to="end2" depart="493.474482" />
    <trip id="start2Toend1_68" type="conventional"  from="start2" to="end1" depart="496.864224" />
    <trip id="start1Toend2_53" type="conventional"  from="start1" to="end2" depart="496.919556" />