<?xml version="1.0" encoding="UTF-8"?>

<routes>

	<route id="route0" edges="start1 end1" />
    <route id="route1" edges="start1 end2" />
    <route id="route2" edges="start2 end1" />
    <route id="route3" edges="start2 end2" />


    <vType id="conventional" vClass="passenger" tau="5.5" minGap="7.5" carFollowModel="IDM" maxSpeed="40.00"/>
    <vType id="conventional_human" vClass="passenger" tau="5.5" minGap="7.5" carFollowModel="IDM" maxSpeed="40.00" color="52,128,235"/>
    <!--vType id="conventional_human" vClass="passenger" tau="3.5" minGap="5.5" carFollowModel="IDM" maxSpeed="28.00" color="52,128,235"/-->
    <vType id="non_merging" vClass="passenger" tau="5.5" minGap="7.5" carFollowModel="IDM" maxSpeed="40.00"/>
    <vType id="merging" vClass="passenger" carFollowModel="IDM" emergencyDecel="4.5" length="5" tau="0.1" maxSpeed="40.00" color="1,1,0" accel="10.3" decel="1.7" sigma="0.0" minGap="2.0"/>
    <!--vType id="connected" vClass="passenger" tau="2.5" minGap="5.5" carFollowModel="IDM" maxSpeed="28.00" lcCooperative="0.0" color="1,1,0" lcStrategic="1.0" accel="3.0" decel="1.5" emergencyDecel="4.5" lcSpeedGain="0.3" sigma="0.0" lcKeepRight="0.3"-->
    <vType id="connected" vClass="passenger" tau="5.5" minGap="7.5" carFollowModel="IDM" maxSpeed="1.00" emergencyDecel="4.5"/>
    <vType id="routeByDistance" maxSpeed="1"/>
    <vType id="connected_pCatchupFollower" vClass="passenger" carFollowModel="IDM" emergencyDecel="4.5" length="5" tau="0.1" maxSpeed="40.00" color="1,1,0" accel="10.3" decel="1.7" sigma="0.0" minGap="2.0"/>
    <vType id="connected_pCatchup" vClass="passenger" tau="0.1" carFollowModel="IDM" emergencyDecel="4.5" maxSpeed="40.00" color="0,0.8,0.3" accel="10.3" decel="1.7" sigma="0.0" minGap="2.0"/>
    <vType id="connected_pFollower" vClass="passenger" tau="0.1" carFollowModel="IDM" maxSpeed="40.00" color="1,1,0" accel="10.3" decel="1.7" sigma="0.0"  minGap="2.0" emergencyDecel="4.5"/>
    <vType id="connected_pLeader" vClass="passenger" length="5" carFollowModel="IDM" maxSpeed="40.00" lcCooperative="0.0" color="1,1,0" lcStrategic="1.0" accel="13.0" decel="1.5" emergencyDecel="4.5" lcSpeedGain="0.3" sigma="0.0" lcKeepRight="0.3"/>

    
	
    <trip id="start1Toend1_0" type="conventional"  from="start1" to="end1" depart="0.000000" />
    <trip id="start2Toend1_0" type="conventional"  from="start2" to="end1" depart="0.000000" />
    <trip id="start1Toend2_0" type="conventional"  from="start1" to="end2" depart="10.000000" />
    <trip id="start2Toend2_0" type="conventional"  from="start2" to="end2" depart="10.000000" />
    <trip id="start1Toend1_1" type="conventional"  from="start1" to="end1" depart="18.871346" />
    <trip id="start1Toend1_2" type="conventional"  from="start1" to="end1" depart="20.589194" />
    <trip id="start1Toend1_3" type="conventional"  from="start1" to="end1" depart="22.080970" />
    <trip id="start2Toend2_1" type="conventional"  from="start2" to="end2" depart="31.154700" />
    <trip id="start1Toend1_4" type="conventional"  from="start1" to="end1" depart="32.762118" />
    <trip id="start1Toend1_5" type="conventional"  from="start1" to="end1" depart="35.922139" />
    <trip id="start1Toend1_6" type="conventional"  from="start1" to="end1" depart="35.983410" />
    <trip id="start2Toend1_1" type="conventional"  from="start2" to="end1" depart="41.067564" />
    <trip id="start1Toend1_7" type="conventional"  from="start1" to="end1" depart="48.145272" />
    <trip id="start2Toend2_2" type="conventional"  from="start2" to="end2" depart="63.767275" />
    <trip id="start2Toend1_2" type="conventional"  from="start2" to="end1" depart="66.632925" />
    <trip id="start2Toend2_3" type="conventional"  from="start2" to="end2" depart="72.219649" />
    <trip id="start1Toend2_1" type="conventional"  from="start1" to="end2" depart="73.071808" />
    <trip id="start1Toend2_2" type="conventional"  from="start1" to="end2" depart="79.226323" />
    <trip id="start2Toend1_3" type="conventional"  from="start2" to="end1" depart="83.490047" />
    <trip id="start2Toend2_4" type="conventional"  from="start2" to="end2" depart="83.869368" />
    <trip id="start2Toend1_4" type="conventional"  from="start2" to="end1" depart="84.576706" />
    <trip id="start2Toend1_5" type="conventional"  from="start2" to="end1" depart="84.789437" />
    <trip id="start2Toend2_5" type="conventional"  from="start2" to="end2" depart="86.937511" />
    <trip id="start2Toend1_6" type="conventional"  from="start2" to="end1" depart="95.195488" />
    <trip id="start1Toend2_3" type="conventional"  from="start1" to="end2" depart="96.003919" />
    <trip id="start2Toend1_7" type="conventional"  from="start2" to="end1" depart="107.744755" />
    <trip id="start1Toend1_8" type="conventional"  from="start1" to="end1" depart="116.023872" />
    <trip id="start2Toend1_8" type="conventional"  from="start2" to="end1" depart="118.173286" />
    <trip id="start2Toend2_6" type="conventional"  from="start2" to="end2" depart="129.469059" />
    <trip id="start2Toend1_9" type="conventional"  from="start2" to="end1" depart="132.373099" />
    <trip id="start1Toend1_9" type="conventional"  from="start1" to="end1" depart="152.828585" />
    <trip id="start1Toend1_10" type="conventional"  from="start1" to="end1" depart="155.605339" />
    <trip id="start2Toend2_7" type="conventional"  from="start2" to="end2" depart="156.658388" />
    <trip id="start1Toend2_4" type="conventional"  from="start1" to="end2" depart="157.972516" />
    <trip id="start1Toend1_11" type="conventional"  from="start1" to="end1" depart="161.237635" />
    <trip id="start2Toend1_10" type="conventional"  from="start2" to="end1" depart="164.746594" />
    <trip id="start2Toend2_8" type="conventional"  from="start2" to="end2" depart="171.005458" />
    <trip id="start2Toend2_9" type="conventional"  from="start2" to="end2" depart="172.258095" />
    <trip id="start1Toend2_5" type="conventional"  from="start1" to="end2" depart="173.622753" />
    <trip id="start2Toend2_10" type="conventional"  from="start2" to="end2" depart="178.738344" />
    <trip id="start1Toend1_12" type="conventional"  from="start1" to="end1" depart="181.759299" />
    <trip id="start1Toend1_13" type="conventional"  from="start1" to="end1" depart="183.897349" />
    <trip id="start1Toend1_14" type="conventional"  from="start1" to="end1" depart="184.690050" />
    <trip id="start1Toend1_15" type="conventional"  from="start1" to="end1" depart="185.052548" />
    <trip id="start1Toend2_6" type="conventional"  from="start1" to="end2" depart="186.685595" />
    <trip id="start2Toend2_11" type="conventional"  from="start2" to="end2" depart="193.696676" />
    <trip id="start2Toend2_12" type="conventional"  from="start2" to="end2" depart="203.334555" />
    <trip id="start1Toend2_7" type="conventional"  from="start1" to="end2" depart="205.481487" />
    <trip id="start2Toend2_13" type="conventional"  from="start2" to="end2" depart="205.590196" />
    <trip id="start2Toend1_11" type="conventional"  from="start2" to="end1" depart="234.518570" />
    <trip id="start2Toend1_12" type="conventional"  from="start2" to="end1" depart="235.462655" />
    <trip id="start1Toend1_16" type="conventional"  from="start1" to="end1" depart="240.193882" />
    <trip id="start1Toend1_17" type="conventional"  from="start1" to="end1" depart="267.169548" />
    <trip id="start1Toend2_8" type="conventional"  from="start1" to="end2" depart="277.088645" />
    <trip id="start1Toend2_9" type="conventional"  from="start1" to="end2" depart="283.091971" />
    <trip id="start1Toend1_18" type="conventional"  from="start1" to="end1" depart="283.931196" />
    <trip id="start1Toend2_10" type="conventional"  from="start1" to="end2" depart="293.852902" />
    <trip id="start1Toend2_11" type="conventional"  from="start1" to="end2" depart="299.549844" />
    <trip id="start2Toend2_14" type="conventional"  from="start2" to="end2" depart="299.951845" />
    <trip id="start2Toend1_13" type="conventional"  from="start2" to="end1" depart="301.817226" />
    <trip id="start2Toend2_15" type="conventional"  from="start2" to="end2" depart="312.018685" />
    <trip id="start2Toend2_16" type="conventional"  from="start2" to="end2" depart="314.314295" />
    <trip id="start2Toend1_14" type="conventional"  from="start2" to="end1" depart="321.262490" />
    <trip id="start2Toend2_17" type="conventional"  from="start2" to="end2" depart="323.339375" />
    <trip id="start1Toend2_12" type="conventional"  from="start1" to="end2" depart="323.798312" />
    <trip id="start1Toend1_19" type="conventional"  from="start1" to="end1" depart="329.797652" />
    <trip id="start2Toend2_18" type="conventional"  from="start2" to="end2" depart="348.713454" />
    <trip id="start1Toend2_13" type="conventional"  from="start1" to="end2" depart="349.648256" />
    <trip id="start1Toend2_14" type="conventional"  from="start1" to="end2" depart="351.359006" />
    <trip id="start2Toend2_19" type="conventional"  from="start2" to="end2" depart="352.300740" />
    <trip id="start1Toend1_20" type="conventional"  from="start1" to="end1" depart="358.910737" />
    <trip id="start1Toend2_15" type="conventional"  from="start1" to="end2" depart="360.353926" />
    <trip id="start2Toend2_20" type="conventional"  from="start2" to="end2" depart="367.186174" />
    <trip id="start1Toend2_16" type="conventional"  from="start1" to="end2" depart="368.923827" />
    <trip id="start2Toend2_21" type="conventional"  from="start2" to="end2" depart="369.387521" />
    <trip id="start1Toend2_17" type="conventional"  from="start1" to="end2" depart="372.472920" />
    <trip id="start2Toend1_15" type="conventional"  from="start2" to="end1" depart="373.163549" />
    <trip id="start2Toend2_22" type="conventional"  from="start2" to="end2" depart="377.310815" />
    <trip id="start2Toend2_23" type="conventional"  from="start2" to="end2" depart="384.381927" />
    <trip id="start1Toend2_18" type="conventional"  from="start1" to="end2" depart="393.928924" />
    <trip id="start2Toend1_16" type="conventional"  from="start2" to="end1" depart="404.466165" />
    <trip id="start1Toend1_21" type="conventional"  from="start1" to="end1" depart="412.304122" />
    <trip id="start2Toend1_17" type="conventional"  from="start2" to="end1" depart="422.445428" />
    <trip id="start1Toend1_22" type="conventional"  from="start1" to="end1" depart="424.399453" />
    <trip id="start2Toend1_18" type="conventional"  from="start2" to="end1" depart="429.440484" />
    <trip id="start2Toend2_24" type="conventional"  from="start2" to="end2" depart="439.745331" />
    <trip id="start2Toend1_19" type="conventional"  from="start2" to="end1" depart="442.178480" />
    <trip id="start2Toend1_20" type="conventional"  from="start2" to="end1" depart="451.969178" />
    <trip id="start1Toend2_19" type="conventional"  from="start1" to="end2" depart="455.276264" />
    <trip id="start2Toend1_21" type="conventional"  from="start2" to="end1" depart="476.677176" />
    <trip id="start2Toend2_25" type="conventional"  from="start2" to="end2" depart="478.080043" />
    <trip id="start2Toend1_22" type="conventional"  from="start2" to="end1" depart="506.428011" />
    <trip id="start2Toend2_26" type="conventional"  from="start2" to="end2" depart="508.461268" />
    <trip id="start1Toend2_20" type="conventional"  from="start1" to="end2" depart="513.947564" />
    <trip id="start1Toend1_23" type="conventional"  from="start1" to="end1" depart="516.965894" />
    <trip id="start2Toend1_23" type="conventional"  from="start2" to="end1" depart="521.367153" />
    <trip id="start2Toend1_24" type="conventional"  from="start2" to="end1" depart="526.658620" />
    <trip id="start1Toend1_24" type="conventional"  from="start1" to="end1" depart="535.750186" />
    <trip id="start1Toend2_21" type="conventional"  from="start1" to="end2" depart="560.015956" />
    <trip id="start1Toend2_22" type="conventional"  from="start1" to="end2" depart="569.278674" />
    <trip id="start2Toend2_27" type="conventional"  from="start2" to="end2" depart="570.251910" />
    <trip id="start1Toend2_23" type="conventional"  from="start1" to="end2" depart="578.639675" />
    <trip id="start2Toend1_25" type="conventional"  from="start2" to="end1" depart="578.918711" />
    <trip id="start2Toend1_26" type="conventional"  from="start2" to="end1" depart="585.081811" />
    <trip id="start1Toend1_25" type="conventional"  from="start1" to="end1" depart="603.625327" />
    <trip id="start2Toend1_27" type="conventional"  from="start2" to="end1" depart="604.846171" />
    <trip id="start2Toend1_28" type="conventional"  from="start2" to="end1" depart="606.346322" />
    <trip id="start1Toend2_24" type="conventional"  from="start1" to="end2" depart="606.389312" />
    <trip id="start2Toend2_28" type="conventional"  from="start2" to="end2" depart="607.257141" />
    <trip id="start1Toend2_25" type="conventional"  from="start1" to="end2" depart="611.385504" />
    <trip id="start1Toend2_26" type="conventional"  from="start1" to="end2" depart="613.474747" />
    <trip id="start2Toend1_29" type="conventional"  from="start2" to="end1" depart="613.478245" />
    <trip id="start2Toend1_30" type="conventional"  from="start2" to="end1" depart="615.649376" />
    <trip id="start2Toend2_29" type="conventional"  from="start2" to="end2" depart="617.265679" />
    <trip id="start2Toend2_30" type="conventional"  from="start2" to="end2" depart="617.953460" />
    <trip id="start1Toend1_26" type="conventional"  from="start1" to="end1" depart="618.305528" />
    <trip id="start2Toend1_31" type="conventional"  from="start2" to="end1" depart="624.648093" />
    <trip id="start1Toend1_27" type="conventional"  from="start1" to="end1" depart="627.838647" />
    <trip id="start1Toend2_27" type="conventional"  from="start1" to="end2" depart="634.990939" />
    <trip id="start1Toend1_28" type="conventional"  from="start1" to="end1" depart="636.743300" />
    <trip id="start2Toend2_31" type="conventional"  from="start2" to="end2" depart="647.488673" />
    <trip id="start1Toend2_28" type="conventional"  from="start1" to="end2" depart="675.652850" />
    <trip id="start2Toend1_32" type="conventional"  from="start2" to="end1" depart="691.103764" />
    <trip id="start1Toend1_29" type="conventional"  from="start1" to="end1" depart="691.698634" />
    <trip id="start1Toend2_29" type="conventional"  from="start1" to="end2" depart="703.195042" />
    <trip id="start1Toend1_30" type="conventional"  from="start1" to="end1" depart="714.280824" />
    <trip id="start2Toend2_32" type="conventional"  from="start2" to="end2" depart="717.659133" />
    <trip id="start2Toend2_33" type="conventional"  from="start2" to="end2" depart="718.061334" />
    <trip id="start1Toend2_30" type="conventional"  from="start1" to="end2" depart="726.587975" />
    <trip id="start2Toend2_34" type="conventional"  from="start2" to="end2" depart="762.645966" />
    <trip id="start1Toend1_31" type="conventional"  from="start1" to="end1" depart="767.472934" />
    <trip id="start2Toend2_35" type="conventional"  from="start2" to="end2" depart="774.717094" />
    <trip id="start2Toend2_36" type="conventional"  from="start2" to="end2" depart="781.865757" />
    <trip id="start2Toend2_37" type="conventional"  from="start2" to="end2" depart="782.867387" />
    <trip id="start1Toend2_31" type="conventional"  from="start1" to="end2" depart="790.564258" />
    <trip id="start2Toend2_38" type="conventional"  from="start2" to="end2" depart="802.124085" />
    <trip id="start1Toend2_32" type="conventional"  from="start1" to="end2" depart="805.060545" />
    <trip id="start1Toend1_32" type="conventional"  from="start1" to="end1" depart="813.742469" />
    <trip id="start2Toend1_33" type="conventional"  from="start2" to="end1" depart="814.343059" />
    <trip id="start1Toend1_33" type="conventional"  from="start1" to="end1" depart="817.337285" />
    <trip id="start2Toend1_34" type="conventional"  from="start2" to="end1" depart="824.234444" />
    <trip id="start2Toend1_35" type="conventional"  from="start2" to="end1" depart="825.364564" />
    <trip id="start2Toend2_39" type="conventional"  from="start2" to="end2" depart="829.164911" />
    <trip id="start1Toend2_33" type="conventional"  from="start1" to="end2" depart="838.248142" />
    <trip id="start1Toend2_34" type="conventional"  from="start1" to="end2" depart="839.197840" />
    <trip id="start1Toend2_35" type="conventional"  from="start1" to="end2" depart="840.407997" />
    <trip id="start2Toend2_40" type="conventional"  from="start2" to="end2" depart="841.575969" />
    <trip id="start2Toend1_36" type="conventional"  from="start2" to="end1" depart="842.269212" />
    <trip id="start1Toend1_34" type="conventional"  from="start1" to="end1" depart="853.841881" />
    <trip id="start2Toend1_37" type="conventional"  from="start2" to="end1" depart="858.523190" />
    <trip id="start1Toend2_36" type="conventional"  from="start1" to="end2" depart="872.382574" />
    <trip id="start1Toend2_37" type="conventional"  from="start1" to="end2" depart="884.583850" />
    <trip id="start1Toend1_35" type="conventional"  from="start1" to="end1" depart="893.777715" />
    <trip id="start1Toend2_38" type="conventional"  from="start1" to="end2" depart="898.426172" />
    <trip id="start1Toend2_39" type="conventional"  from="start1" to="end2" depart="900.433352" />
    <trip id="start2Toend1_38" type="conventional"  from="start2" to="end1" depart="903.308944" />
    <trip id="start1Toend1_36" type="conventional"  from="start1" to="end1" depart="903.355090" />
    <trip id="start2Toend2_41" type="conventional"  from="start2" to="end2" depart="910.526021" />
    <trip id="start1Toend1_37" type="conventional"  from="start1" to="end1" depart="911.513482" />
    <trip id="start1Toend1_38" type="conventional"  from="start1" to="end1" depart="949.705305" />
    <trip id="start1Toend1_39" type="conventional"  from="start1" to="end1" depart="950.374523" />
    <trip id="start1Toend2_40" type="conventional"  from="start1" to="end2" depart="971.885609" />
    <trip id="start2Toend1_39" type="conventional"  from="start2" to="end1" depart="973.091074" />
    <trip id="start2Toend1_40" type="conventional"  from="start2" to="end1" depart="974.731585" />
    <trip id="start1Toend2_41" type="conventional"  from="start1" to="end2" depart="976.122422" />
    <trip id="start1Toend2_42" type="conventional"  from="start1" to="end2" depart="976.302342" />
    <trip id="start2Toend1_41" type="conventional"  from="start2" to="end1" depart="977.316762" />
    <trip id="start2Toend1_42" type="conventional"  from="start2" to="end1" depart="986.678567" />
    <trip id="start2Toend1_43" type="conventional"  from="start2" to="end1" depart="998.598510" />
    <trip id="start1Toend2_43" type="conventional"  from="start1" to="end2" depart="1000.404907" />
    <trip id="start1Toend2_44" type="conventional"  from="start1" to="end2" depart="1000.531766" />
    <trip id="start2Toend2_42" type="conventional"  from="start2" to="end2" depart="1004.342066" />
    <trip id="start1Toend2_45" type="conventional"  from="start1" to="end2" depart="1009.230859" />
    <trip id="start1Toend2_46" type="conventional"  from="start1" to="end2" depart="1012.420269" />
    <trip id="start1Toend1_40" type="conventional"  from="start1" to="end1" depart="1018.262234" />
    <trip id="start1Toend1_41" type="conventional"  from="start1" to="end1" depart="1029.647920" />
    <trip id="start1Toend1_42" type="conventional"  from="start1" to="end1" depart="1030.135340" />
    <trip id="start2Toend2_43" type="conventional"  from="start2" to="end2" depart="1033.861385" />
    <trip id="start1Toend1_43" type="conventional"  from="start1" to="end1" depart="1035.197102" />
    <trip id="start1Toend2_47" type="conventional"  from="start1" to="end2" depart="1040.484968" />
    <trip id="start2Toend2_44" type="conventional"  from="start2" to="end2" depart="1045.999267" />
    <trip id="start1Toend2_48" type="conventional"  from="start1" to="end2" depart="1049.519294" />
    <trip id="start1Toend1_44" type="conventional"  from="start1" to="end1" depart="1074.955224" />
    <trip id="start1Toend1_45" type="conventional"  from="start1" to="end1" depart="1081.195072" />
    <trip id="start2Toend1_44" type="conventional"  from="start2" to="end1" depart="1095.834605" />
    <trip id="start2Toend2_45" type="conventional"  from="start2" to="end2" depart="1096.052037" />
    <trip id="start1Toend2_49" type="conventional"  from="start1" to="end2" depart="1098.469665" />
    <trip id="start2Toend2_46" type="conventional"  from="start2" to="end2" depart="1098.878133" />
    <trip id="start1Toend2_50" type="conventional"  from="start1" to="end2" depart="1104.270183" />
    <trip id="start2Toend1_45" type="conventional"  from="start2" to="end1" depart="1124.586363" />
    <trip id="start1Toend2_51" type="conventional"  from="start1" to="end2" depart="1136.289995" />
    <trip id="start2Toend2_47" type="conventional"  from="start2" to="end2" depart="1136.866921" />
    <trip id="start2Toend1_46" type="conventional"  from="start2" to="end1" depart="1158.278683" />
    <trip id="start2Toend2_48" type="conventional"  from="start2" to="end2" depart="1165.660666" />
    <trip id="start1Toend2_52" type="conventional"  from="start1" to="end2" depart="1171.757245" />
    <trip id="start1Toend2_53" type="conventional"  from="start1" to="end2" depart="1172.289064" />
    <trip id="start1Toend2_54" type="conventional"  from="start1" to="end2" depart="1189.987116" />
    <trip id="start1Toend2_55" type="conventional"  from="start1" to="end2" depart="1197.684329" />
    <trip id="start2Toend1_47" type="conventional"  from="start2" to="end1" depart="1201.608139" />
    <trip id="start2Toend2_49" type="conventional"  from="start2" to="end2" depart="1218.020506" />
    <trip id="start1Toend2_56" type="conventional"  from="start1" to="end2" depart="1225.196460" />
    <trip id="start1Toend1_46" type="conventional"  from="start1" to="end1" depart="1231.112892" />
    <trip id="start1Toend1_47" type="conventional"  from="start1" to="end1" depart="1236.699293" />
    <trip id="start1Toend2_57" type="conventional"  from="start1" to="end2" depart="1239.813956" />
    <trip id="start2Toend1_48" type="conventional"  from="start2" to="end1" depart="1244.149316" />
    <trip id="start1Toend1_48" type="conventional"  from="start1" to="end1" depart="1248.568845" />
    <trip id="start2Toend1_49" type="conventional"  from="start2" to="end1" depart="1256.676780" />
    <trip id="start1Toend2_58" type="conventional"  from="start1" to="end2" depart="1257.076351" />
    <trip id="start2Toend1_50" type="conventional"  from="start2" to="end1" depart="1257.703197" />
    <trip id="start1Toend2_59" type="conventional"  from="start1" to="end2" depart="1257.859627" />
    <trip id="start1Toend1_49" type="conventional"  from="start1" to="end1" depart="1259.346984" />
    <trip id="start2Toend2_50" type="conventional"  from="start2" to="end2" depart="1260.728482" />
    <trip id="start2Toend2_51" type="conventional"  from="start2" to="end2" depart="1262.255171" />
    <trip id="start1Toend2_60" type="conventional"  from="start1" to="end2" depart="1262.947137" />
    <trip id="start1Toend2_61" type="conventional"  from="start1" to="end2" depart="1263.310476" />
    <trip id="start2Toend2_52" type="conventional"  from="start2" to="end2" depart="1264.317015" />
    <trip id="start2Toend2_53" type="conventional"  from="start2" to="end2" depart="1268.990624" />
    <trip id="start1Toend2_62" type="conventional"  from="start1" to="end2" depart="1274.772725" />
    <trip id="start2Toend1_51" type="conventional"  from="start2" to="end1" depart="1275.274747" />
    <trip id="start1Toend1_50" type="conventional"  from="start1" to="end1" depart="1277.862461" />
    <trip id="start2Toend2_54" type="conventional"  from="start2" to="end2" depart="1284.025706" />
    <trip id="start2Toend1_52" type="conventional"  from="start2" to="end1" depart="1287.566623" />
    <trip id="start1Toend1_51" type="conventional"  from="start1" to="end1" depart="1297.859679" />
    <trip id="start2Toend2_55" type="conventional"  from="start2" to="end2" depart="1300.298311" />
    <trip id="start1Toend2_63" type="conventional"  from="start1" to="end2" depart="1308.999121" />
    <trip id="start2Toend2_56" type="conventional"  from="start2" to="end2" depart="1311.422139" />
    <trip id="start2Toend1_53" type="conventional"  from="start2" to="end1" depart="1314.095114" />
    <trip id="start1Toend2_64" type="conventional"  from="start1" to="end2" depart="1320.607817" />
    <trip id="start2Toend2_57" type="conventional"  from="start2" to="end2" depart="1324.380192" />
    <trip id="start2Toend2_58" type="conventional"  from="start2" to="end2" depart="1326.519955" />
    <trip id="start1Toend1_52" type="conventional"  from="start1" to="end1" depart="1329.120249" />
    <trip id="start1Toend1_53" type="conventional"  from="start1" to="end1" depart="1351.951634" />
    <trip id="start2Toend1_54" type="conventional"  from="start2" to="end1" depart="1356.111876" />
    <trip id="start1Toend1_54" type="conventional"  from="start1" to="end1" depart="1358.192330" />
    <trip id="start2Toend2_59" type="conventional"  from="start2" to="end2" depart="1360.097580" />
    <trip id="start2Toend1_55" type="conventional"  from="start2" to="end1" depart="1368.926083" />
    <trip id="start2Toend2_60" type="conventional"  from="start2" to="end2" depart="1372.022249" />
    <trip id="start1Toend1_55" type="conventional"  from="start1" to="end1" depart="1377.318290" />
    <trip id="start2Toend1_56" type="conventional"  from="start2" to="end1" depart="1379.690411" />
    <trip id="start1Toend1_56" type="conventional"  from="start1" to="end1" depart="1380.333056" />
    <trip id="start2Toend2_61" type="conventional"  from="start2" to="end2" depart="1386.542768" />
    <trip id="start1Toend2_65" type="conventional"  from="start1" to="end2" depart="1388.861639" />
    <trip id="start2Toend1_57" type="conventional"  from="start2" to="end1" depart="1388.953600" />
    <trip id="start2Toend2_62" type="conventional"  from="start2" to="end2" depart="1391.718638" />
    <trip id="start2Toend2_63" type="conventional"  from="start2" to="end2" depart="1402.417227" />
    <trip id="start2Toend1_58" type="conventional"  from="start2" to="end1" depart="1402.666301" />
    <trip id="start1Toend1_57" type="conventional"  from="start1" to="end1" depart="1403.524321" />
    <trip id="start2Toend1_59" type="conventional"  from="start2" to="end1" depart="1423.524143" />
    <trip id="start1Toend2_66" type="conventional"  from="start1" to="end2" depart="1424.532787" />
    <trip id="start2Toend2_64" type="conventional"  from="start2" to="end2" depart="1430.788016" />
    <trip id="start1Toend2_67" type="conventional"  from="start1" to="end2" depart="1436.056732" />
    <trip id="start2Toend2_65" type="conventional"  from="start2" to="end2" depart="1439.450013" />
    <trip id="start2Toend1_60" type="conventional"  from="start2" to="end1" depart="1443.366557" />
    <trip id="start2Toend2_66" type="conventional"  from="start2" to="end2" depart="1444.372304" />
    <trip id="start1Toend1_58" type="conventional"  from="start1" to="end1" depart="1455.581093" />
    <trip id="start1Toend2_68" type="conventional"  from="start1" to="end2" depart="1461.211625" />
    <trip id="start2Toend1_61" type="conventional"  from="start2" to="end1" depart="1462.838757" />
    <trip id="start2Toend1_62" type="conventional"  from="start2" to="end1" depart="1463.261706" />
    <trip id="start2Toend2_67" type="conventional"  from="start2" to="end2" depart="1466.848903" />
    <trip id="start1Toend1_59" type="conventional"  from="start1" to="end1" depart="1468.037569" />
    <trip id="start2Toend2_68" type="conventional"  from="start2" to="end2" depart="1473.334140" />
    <trip id="start2Toend2_69" type="conventional"  from="start2" to="end2" depart="1481.754862" />
    <trip id="start2Toend2_70" type="conventional"  from="start2" to="end2" depart="1487.508265" />
    <trip id="start1Toend2_69" type="conventional"  from="start1" to="end2" depart="1527.794170" />
    <trip id="start2Toend2_71" type="conventional"  from="start2" to="end2" depart="1529.330204" />
    <trip id="start2Toend1_63" type="conventional"  from="start2" to="end1" depart="1534.013976" />
    <trip id="start2Toend2_72" type="conventional"  from="start2" to="end2" depart="1543.051265" />
    <trip id="start2Toend2_73" type="conventional"  from="start2" to="end2" depart="1553.768149" />
    <trip id="start2Toend1_64" type="conventional"  from="start2" to="end1" depart="1556.930190" />
    <trip id="start1Toend1_60" type="conventional"  from="start1" to="end1" depart="1558.315711" />
    <trip id="start2Toend2_74" type="conventional"  from="start2" to="end2" depart="1561.893401" />
    <trip id="start1Toend2_70" type="conventional"  from="start1" to="end2" depart="1565.266985" />
    <trip id="start1Toend1_61" type="conventional"  from="start1" to="end1" depart="1566.030187" />
    <trip id="start2Toend2_75" type="conventional"  from="start2" to="end2" depart="1572.678262" />
    <trip id="start1Toend2_71" type="conventional"  from="start1" to="end2" depart="1584.010009" />
    <trip id="start1Toend1_62" type="conventional"  from="start1" to="end1" depart="1586.091983" />
    <trip id="start1Toend2_72" type="conventional"  from="start1" to="end2" depart="1595.573606" />
    <trip id="start1Toend1_63" type="conventional"  from="start1" to="end1" depart="1610.056598" />
    <trip id="start1Toend1_64" type="conventional"  from="start1" to="end1" depart="1616.198977" />
    <trip id="start1Toend2_73" type="conventional"  from="start1" to="end2" depart="1621.411399" />