<?xml version="1.0" encoding="UTF-8"?>

<!-- generated on Tue 26 Apr 2022 11:18:13 AM CST by Eclipse SUMO netedit Version 1.4.0
<configuration xmlns:xsi="http://www.w3.org/2001/XMLSchema-instance" xsi:noNamespaceSchemaLocation="http://sumo.dlr.de/xsd/netconvertConfiguration.xsd">

    <input>
        <sumo-net-file value="/home/dell/Documents/Research/Network_RL/two_junctions/Baseline/Nguyen-Dupuis/newND.net.xml"/>
    </input>

    <output>
        <output-file value="/home/dell/Documents/Research/Network_RL/two_junctions/Baseline/Nguyen-Dupuis/newND.net.xml"/>
    </output>

    <processing>
        <geometry.min-radius.fix.railways value="false"/>
        <geometry.max-grade.fix value="false"/>
        <offset.disable-normalization value="true"/>
        <lefthand value="false"/>
    </processing>

    <junctions>
        <no-turnarounds value="true"/>
        <junctions.corner-detail value="5"/>
        <junctions.limit-turn-speed value="5.5"/>
        <rectangular-lane-cut value="false"/>
    </junctions>

    <pedestrian>
        <walkingareas value="false"/>
    </pedestrian>

    <visualisation>
        <registry-viewport value="true"/>
    </visualisation>

    <report>
        <aggregate-warnings value="5"/>
    </report>

</configuration>
-->

<net version="1.3" junctionCornerDetail="5" limitTurnSpeed="5.50"
    xmlns:xsi="http://www.w3.org/2001/XMLSchema-instance" xsi:noNamespaceSchemaLocation="http://sumo.dlr.de/xsd/net_file.xsd">

    <location netOffset="0.00,0.00" convBoundary="-1250.09,-1283.11,10000.00,0.00" origBoundary="-10000000000.00,-10000000000.00,10000000000.00,10000000000.00" projParameter="!"/>

    <edge id=":junction1_0" function="internal">
        <lane id=":junction1_0_0" index="0" speed="7.98" length="7.49" shape="-2.14,-5.82 -0.66,-3.97 0.81,-2.65 2.28,-1.86 3.73,-1.60"/>
    </edge>
    <edge id=":junction1_1" function="internal">
        <lane id=":junction1_1_0" index="0" speed="50.00" length="8.06" shape="-4.33,-1.60 3.73,-1.60"/>
    </edge>
    <edge id=":junction2_0" function="internal">
        <lane id=":junction2_0_0" index="0" speed="7.71" length="7.55" shape="4998.20,-5.93 4999.57,-4.04 5001.00,-2.68 5002.47,-1.87 5004.00,-1.60"/>
    </edge>
    <edge id=":junction2_1" function="internal">
        <lane id=":junction2_1_0" index="0" speed="50.00" length="8.22" shape="4995.79,-1.60 5004.00,-1.60"/>
    </edge>

    <!-- lanes with id "xxx_d" denote dedicated lanes （”xxx_d"指的是专用道）-->
    <edge id="link1" from="start0" to="junction1" priority="-1" length="5000.00">
        <lane id="link1_0" index="0" speed="50.00" length="5000.00" shape="-1250.09,-1.60 -4.33,-1.60"/>
        <lane id="link1_d" index="1" speed="50.00" length="5000.00" shape="-1250.09,-2.60 -4.33,-2.60">
            <param key="type" value="Platooning"/>
        </lane>

    </edge>

    <edge id="link2" from="junction1" to="junction2" priority="1" length="31000.00">
        <lane id="link2_0" index="0" speed="50.00" length="31000.00" shape="3.73,-1.60 4995.79,-1.60"/>
        <lane id="link2_1" index="1" speed="50.00" length="31000.00" shape="3.73,-2.60 4995.79,-2.60">
            <param key="type" value="Platooning" startOffset="15000" endOffset="31000"/>
        </lane>
    </edge>

    <edge id="link3" from="junction2" to="junction3" priority="-1" length="30000.00">
        <lane id="link3_0" index="0" speed="50.00" length="30000.00" shape="5004.00,-1.60 10000.00,-1.60"/>
        <lane id="link3_d" index="1" speed="50.00" length="30000.00" shape="5004.00,-2.60 10000.00,-2.60"/>

    </edge>
    <edge id="link7" from="start1" to="junction1" priority="-1" length="5000.00">
        <lane id="link7_0" index="0" speed="50.00" length="5000.00" shape="-762.59,-1084.45 -2.14,-5.82"/>
        <lane id="link7_d" index="1" speed="50.00" length="5000.00" shape="-763.59,-1086.45 -3.14,-3.82">
            <param key="type" value="Platooning"/>
        </lane>
    </edge>
    <edge id="link8" from="start2" to="junction2" priority="-1" length="5000.00">
        <lane id="link8_0" index="0" speed="50.00" length="5000.00" shape="4204.50,-1283.95 4998.20,-5.93"/>
        <lane id="link8_d" index="1" speed="50.00" length="5000.00" shape="4203.50,-1285.95 4997.20,-7.93">
            <param key="type" value="Platooning"/>
        </lane>
    </edge>

    <junction id="junction1" type="priority" x="0.00" y="0.00" incLanes="link7_0 link1_0" intLanes=":junction1_0_0 :junction1_1_0" shape="3.73,0.00 3.73,-3.20 2.30,-3.59 1.55,-4.08 0.78,-4.77 -0.02,-5.66 -0.84,-6.74 -3.45,-4.90 -3.02,-3.95 -3.07,-3.62 -3.31,-3.39 -3.73,-3.25 -4.33,-3.20 -4.33,0.00">
        <request index="0" response="00" foes="10" cont="0"/>
        <request index="1" response="01" foes="01" cont="0"/>
    </junction>
    <junction id="junction2" type="priority" x="5000.00" y="0.00" incLanes="link8_0 link2_0" intLanes=":junction2_0_0 :junction2_1_0" shape="5004.00,0.00 5004.00,-3.20 5002.52,-3.60 5001.78,-4.09 5001.04,-4.79 5000.30,-5.68 4999.56,-6.78 4996.84,-5.09 4997.24,-4.04 4997.16,-3.67 4996.89,-3.41 4996.44,-3.25 4995.79,-3.20 4995.79,0.00">
        <request index="0" response="00" foes="10" cont="0"/>
        <request index="1" response="01" foes="01" cont="0"/>
    </junction>
    <junction id="junction3" type="dead_end" x="10000.00" y="0.00" incLanes="link3_0" intLanes="" shape="10000.00,-3.20 10000.00,0.00"/>
    <junction id="start0" type="dead_end" x="-1250.09" y="0.00" incLanes="" intLanes="" shape="-1250.09,0.00 -1250.09,-3.20"/>
    <junction id="start1" type="dead_end" x="-763.90" y="-1083.53" incLanes="" intLanes="" shape="-763.90,-1083.53 -761.28,-1085.37"/>
    <junction id="start2" type="dead_end" x="4203.14" y="-1283.11" incLanes="" intLanes="" shape="4203.14,-1283.11 4205.86,-1284.80"/>

    <connection from="link1" to="link2" fromLane="0" toLane="0" via=":junction1_1_0" dir="s" state="m"/>
    <connection from="link2" to="link3" fromLane="0" toLane="0" via=":junction2_1_0" dir="s" state="m"/>
    <connection from="link7" to="link2" fromLane="0" toLane="0" via=":junction1_0_0" dir="r" state="M"/>
    <connection from="link8" to="link3" fromLane="0" toLane="0" via=":junction2_0_0" dir="r" state="M"/>

    <connection from=":junction1_0" to="link2" fromLane="0" toLane="0" dir="r" state="M"/>
    <connection from=":junction1_1" to="link2" fromLane="0" toLane="0" dir="s" state="M"/>
    <connection from=":junction2_0" to="link3" fromLane="0" toLane="0" dir="r" state="M"/>
    <connection from=":junction2_1" to="link3" fromLane="0" toLane="0" dir="s" state="M"/>

</net>
