<?xml version="1.0" encoding="UTF-8"?>

<routes>

	<route id="route0" edges="start1 end1" />
    <route id="route1" edges="start1 end2" />
    <route id="route2" edges="start2 end1" />
    <route id="route3" edges="start2 end2" />


    <vType id="conventional" vClass="passenger" tau="5.5" minGap="7.5" carFollowModel="IDM" maxSpeed="40.00"/>
    <vType id="conventional_human" vClass="passenger" tau="5.5" minGap="7.5" carFollowModel="IDM" maxSpeed="40.00" color="52,128,235"/>
    <!--vType id="conventional_human" vClass="passenger" tau="3.5" minGap="5.5" carFollowModel="IDM" maxSpeed="28.00" color="52,128,235"/-->
    <vType id="non_merging" vClass="passenger" tau="5.5" minGap="7.5" carFollowModel="IDM" maxSpeed="40.00"/>
    <vType id="merging" vClass="passenger" carFollowModel="IDM" emergencyDecel="4.5" length="5" tau="0.1" maxSpeed="40.00" color="1,1,0" accel="10.3" decel="1.7" sigma="0.0" minGap="2.0"/>
    <!--vType id="connected" vClass="passenger" tau="2.5" minGap="5.5" carFollowModel="IDM" maxSpeed="28.00" lcCooperative="0.0" color="1,1,0" lcStrategic="1.0" accel="3.0" decel="1.5" emergencyDecel="4.5" lcSpeedGain="0.3" sigma="0.0" lcKeepRight="0.3"-->
    <vType id="connected" vClass="passenger" tau="5.5" minGap="7.5" carFollowModel="IDM" maxSpeed="1.00" emergencyDecel="4.5"/>
    <vType id="routeByDistance" maxSpeed="1"/>
    <vType id="connected_pCatchupFollower" vClass="passenger" carFollowModel="IDM" emergencyDecel="4.5" length="5" tau="0.1" maxSpeed="40.00" color="1,1,0" accel="10.3" decel="1.7" sigma="0.0" minGap="2.0"/>
    <vType id="connected_pCatchup" vClass="passenger" tau="0.1" carFollowModel="IDM" emergencyDecel="4.5" maxSpeed="40.00" color="0,0.8,0.3" accel="10.3" decel="1.7" sigma="0.0" minGap="2.0"/>
    <vType id="connected_pFollower" vClass="passenger" tau="0.1" carFollowModel="IDM" maxSpeed="40.00" color="1,1,0" accel="10.3" decel="1.7" sigma="0.0"  minGap="2.0" emergencyDecel="4.5"/>
    <vType id="connected_pLeader" vClass="passenger" length="5" tau="7.5" minGap="9.5" carFollowModel="IDM" maxSpeed="40.00" lcCooperative="0.0" color="1,1,0" lcStrategic="1.0" accel="2.0" decel="1.5" emergencyDecel="4.5" lcSpeedGain="0.3" sigma="0.0" lcKeepRight="0.3"/>
    

	
    <trip id="start1Toend1_0" type="conventional"  from="start1" to="end1" depart="0.000000" />
    <trip id="start2Toend1_0" type="conventional"  from="start2" to="end1" depart="0.000000" />
    <trip id="start1Toend1_1" type="conventional"  from="start1" to="end1" depart="1.554426" />
    <trip id="start1Toend2_0" type="conventional"  from="start1" to="end2" depart="10.000000" />
    <trip id="start2Toend2_0" type="conventional"  from="start2" to="end2" depart="10.000000" />
    <trip id="start1Toend2_1" type="conventional"  from="start1" to="end2" depart="13.532792" />
    <trip id="start1Toend1_2" type="conventional"  from="start1" to="end1" depart="14.075136" />
    <trip id="start1Toend2_2" type="conventional"  from="start1" to="end2" depart="16.020747" />
    <trip id="start2Toend1_1" type="conventional"  from="start2" to="end1" depart="16.620498" />
    <trip id="start2Toend1_2" type="conventional"  from="start2" to="end1" depart="19.583877" />
    <trip id="start1Toend1_3" type="conventional"  from="start1" to="end1" depart="20.937219" />
    <trip id="start2Toend2_1" type="conventional"  from="start2" to="end2" depart="22.350035" />
    <trip id="start2Toend2_2" type="conventional"  from="start2" to="end2" depart="25.887152" />
    <trip id="start2Toend1_3" type="conventional"  from="start2" to="end1" depart="27.484371" />
    <trip id="start2Toend2_3" type="conventional"  from="start2" to="end2" depart="30.249999" />
    <trip id="start2Toend2_4" type="conventional"  from="start2" to="end2" depart="31.206044" />
    <trip id="start1Toend2_3" type="conventional"  from="start1" to="end2" depart="31.565779" />
    <trip id="start1Toend2_4" type="conventional"  from="start1" to="end2" depart="31.609003" />
    <trip id="start1Toend2_5" type="conventional"  from="start1" to="end2" depart="32.753399" />
    <trip id="start1Toend1_4" type="conventional"  from="start1" to="end1" depart="45.346099" />
    <trip id="start2Toend1_4" type="conventional"  from="start2" to="end1" depart="54.406465" />
    <trip id="start2Toend2_5" type="conventional"  from="start2" to="end2" depart="56.601923" />
    <trip id="start1Toend2_6" type="conventional"  from="start1" to="end2" depart="57.912728" />
    <trip id="start2Toend1_5" type="conventional"  from="start2" to="end1" depart="61.657513" />
    <trip id="start1Toend1_5" type="conventional"  from="start1" to="end1" depart="64.935153" />
    <trip id="start1Toend2_7" type="conventional"  from="start1" to="end2" depart="70.738720" />
    <trip id="start1Toend2_8" type="conventional"  from="start1" to="end2" depart="74.556268" />
    <trip id="start2Toend2_6" type="conventional"  from="start2" to="end2" depart="81.461990" />
    <trip id="start1Toend2_9" type="conventional"  from="start1" to="end2" depart="82.064593" />
    <trip id="start1Toend1_6" type="conventional"  from="start1" to="end1" depart="85.221076" />
    <trip id="start2Toend2_7" type="conventional"  from="start2" to="end2" depart="88.094251" />
    <trip id="start1Toend1_7" type="conventional"  from="start1" to="end1" depart="100.330991" />
    <trip id="start2Toend2_8" type="conventional"  from="start2" to="end2" depart="100.998569" />
    <trip id="start1Toend2_10" type="conventional"  from="start1" to="end2" depart="103.188830" />
    <trip id="start1Toend2_11" type="conventional"  from="start1" to="end2" depart="115.220977" />
    <trip id="start1Toend1_8" type="conventional"  from="start1" to="end1" depart="127.850530" />
    <trip id="start1Toend2_12" type="conventional"  from="start1" to="end2" depart="131.376836" />
    <trip id="start2Toend1_6" type="conventional"  from="start2" to="end1" depart="139.643084" />
    <trip id="start1Toend2_13" type="conventional"  from="start1" to="end2" depart="154.123884" />
    <trip id="start2Toend1_7" type="conventional"  from="start2" to="end1" depart="155.529233" />
    <trip id="start1Toend2_14" type="conventional"  from="start1" to="end2" depart="156.149995" />
    <trip id="start2Toend1_8" type="conventional"  from="start2" to="end1" depart="160.925715" />
    <trip id="start2Toend1_9" type="conventional"  from="start2" to="end1" depart="161.114967" />
    <trip id="start2Toend1_10" type="conventional"  from="start2" to="end1" depart="188.983099" />
    <trip id="start2Toend2_9" type="conventional"  from="start2" to="end2" depart="189.187571" />
    <trip id="start2Toend2_10" type="conventional"  from="start2" to="end2" depart="189.404458" />
    <trip id="start2Toend1_11" type="conventional"  from="start2" to="end1" depart="190.340229" />
    <trip id="start2Toend1_12" type="conventional"  from="start2" to="end1" depart="192.375244" />
    <trip id="start1Toend1_9" type="conventional"  from="start1" to="end1" depart="194.061947" />
    <trip id="start1Toend1_10" type="conventional"  from="start1" to="end1" depart="198.522012" />
    <trip id="start1Toend1_11" type="conventional"  from="start1" to="end1" depart="199.621571" />
    <trip id="start2Toend2_11" type="conventional"  from="start2" to="end2" depart="203.769688" />
    <trip id="start2Toend1_13" type="conventional"  from="start2" to="end1" depart="209.138843" />
    <trip id="start2Toend1_14" type="conventional"  from="start2" to="end1" depart="214.570570" />
    <trip id="start2Toend1_15" type="conventional"  from="start2" to="end1" depart="214.999870" />
    <trip id="start1Toend2_15" type="conventional"  from="start1" to="end2" depart="215.329615" />
    <trip id="start2Toend1_16" type="conventional"  from="start2" to="end1" depart="230.992190" />
    <trip id="start1Toend1_12" type="conventional"  from="start1" to="end1" depart="231.224515" />
    <trip id="start1Toend1_13" type="conventional"  from="start1" to="end1" depart="232.295192" />
    <trip id="start1Toend2_16" type="conventional"  from="start1" to="end2" depart="246.545768" />
    <trip id="start2Toend2_12" type="conventional"  from="start2" to="end2" depart="248.215296" />
    <trip id="start2Toend2_13" type="conventional"  from="start2" to="end2" depart="249.952125" />
    <trip id="start1Toend1_14" type="conventional"  from="start1" to="end1" depart="251.631930" />
    <trip id="start1Toend2_17" type="conventional"  from="start1" to="end2" depart="253.327829" />
    <trip id="start1Toend2_18" type="conventional"  from="start1" to="end2" depart="254.081552" />
    <trip id="start1Toend1_15" type="conventional"  from="start1" to="end1" depart="257.813260" />
    <trip id="start2Toend2_14" type="conventional"  from="start2" to="end2" depart="259.279431" />
    <trip id="start1Toend1_16" type="conventional"  from="start1" to="end1" depart="260.658635" />
    <trip id="start2Toend2_15" type="conventional"  from="start2" to="end2" depart="264.337219" />
    <trip id="start1Toend2_19" type="conventional"  from="start1" to="end2" depart="265.284074" />
    <trip id="start2Toend1_17" type="conventional"  from="start2" to="end1" depart="268.615992" />
    <trip id="start1Toend2_20" type="conventional"  from="start1" to="end2" depart="274.824733" />
    <trip id="start2Toend2_16" type="conventional"  from="start2" to="end2" depart="277.122828" />
    <trip id="start2Toend2_17" type="conventional"  from="start2" to="end2" depart="277.902891" />
    <trip id="start2Toend1_18" type="conventional"  from="start2" to="end1" depart="279.453122" />
    <trip id="start2Toend1_19" type="conventional"  from="start2" to="end1" depart="280.630091" />
    <trip id="start2Toend2_18" type="conventional"  from="start2" to="end2" depart="307.782823" />
    <trip id="start1Toend2_21" type="conventional"  from="start1" to="end2" depart="307.996602" />
    <trip id="start1Toend2_22" type="conventional"  from="start1" to="end2" depart="308.331466" />
    <trip id="start1Toend1_17" type="conventional"  from="start1" to="end1" depart="326.229593" />
    <trip id="start2Toend1_20" type="conventional"  from="start2" to="end1" depart="329.161840" />
    <trip id="start1Toend2_23" type="conventional"  from="start1" to="end2" depart="333.503155" />
    <trip id="start2Toend1_21" type="conventional"  from="start2" to="end1" depart="334.809487" />
    <trip id="start2Toend2_19" type="conventional"  from="start2" to="end2" depart="338.025442" />
    <trip id="start2Toend2_20" type="conventional"  from="start2" to="end2" depart="352.608680" />
    <trip id="start2Toend1_22" type="conventional"  from="start2" to="end1" depart="353.123108" />
    <trip id="start1Toend2_24" type="conventional"  from="start1" to="end2" depart="355.977455" />
    <trip id="start1Toend2_25" type="conventional"  from="start1" to="end2" depart="358.954095" />
    <trip id="start2Toend2_21" type="conventional"  from="start2" to="end2" depart="359.737858" />
    <trip id="start2Toend2_22" type="conventional"  from="start2" to="end2" depart="374.206994" />
    <trip id="start2Toend2_23" type="conventional"  from="start2" to="end2" depart="377.100453" />
    <trip id="start1Toend2_26" type="conventional"  from="start1" to="end2" depart="379.189516" />
    <trip id="start1Toend1_18" type="conventional"  from="start1" to="end1" depart="381.850439" />
    <trip id="start2Toend1_23" type="conventional"  from="start2" to="end1" depart="387.544302" />
    <trip id="start2Toend1_24" type="conventional"  from="start2" to="end1" depart="390.836052" />
    <trip id="start1Toend2_27" type="conventional"  from="start1" to="end2" depart="393.972715" />
    <trip id="start2Toend2_24" type="conventional"  from="start2" to="end2" depart="400.461135" />
    <trip id="start2Toend1_25" type="conventional"  from="start2" to="end1" depart="400.717838" />
    <trip id="start1Toend1_19" type="conventional"  from="start1" to="end1" depart="402.701690" />
    <trip id="start2Toend2_25" type="conventional"  from="start2" to="end2" depart="405.567211" />
    <trip id="start2Toend2_26" type="conventional"  from="start2" to="end2" depart="413.414069" />
    <trip id="start2Toend1_26" type="conventional"  from="start2" to="end1" depart="417.945281" />
    <trip id="start1Toend1_20" type="conventional"  from="start1" to="end1" depart="418.329953" />
    <trip id="start1Toend2_28" type="conventional"  from="start1" to="end2" depart="427.218082" />
    <trip id="start1Toend2_29" type="conventional"  from="start1" to="end2" depart="433.600557" />
    <trip id="start2Toend2_27" type="conventional"  from="start2" to="end2" depart="441.851270" />
    <trip id="start1Toend1_21" type="conventional"  from="start1" to="end1" depart="445.363564" />
    <trip id="start1Toend1_22" type="conventional"  from="start1" to="end1" depart="445.668694" />
    <trip id="start2Toend2_28" type="conventional"  from="start2" to="end2" depart="446.550181" />
    <trip id="start2Toend2_29" type="conventional"  from="start2" to="end2" depart="449.978860" />
    <trip id="start1Toend1_23" type="conventional"  from="start1" to="end1" depart="452.702472" />
    <trip id="start1Toend1_24" type="conventional"  from="start1" to="end1" depart="456.340364" />
    <trip id="start1Toend1_25" type="conventional"  from="start1" to="end1" depart="458.622795" />
    <trip id="start1Toend1_26" type="conventional"  from="start1" to="end1" depart="460.970079" />
    <trip id="start1Toend2_30" type="conventional"  from="start1" to="end2" depart="463.666355" />
    <trip id="start2Toend1_27" type="conventional"  from="start2" to="end1" depart="481.154616" />
    <trip id="start1Toend2_31" type="conventional"  from="start1" to="end2" depart="481.861616" />
    <trip id="start2Toend1_28" type="conventional"  from="start2" to="end1" depart="483.589729" />
    <trip id="start2Toend1_29" type="conventional"  from="start2" to="end1" depart="485.404282" />
    <trip id="start2Toend1_30" type="conventional"  from="start2" to="end1" depart="488.278535" />
    <trip id="start2Toend2_30" type="conventional"  from="start2" to="end2" depart="491.976705" />
    <trip id="start1Toend1_27" type="conventional"  from="start1" to="end1" depart="495.800596" />
    <trip id="start1Toend2_32" type="conventional"  from="start1" to="end2" depart="522.168713" />
    <trip id="start2Toend2_31" type="conventional"  from="start2" to="end2" depart="536.632666" />
    <trip id="start2Toend1_31" type="conventional"  from="start2" to="end1" depart="543.251611" />
    <trip id="start1Toend1_28" type="conventional"  from="start1" to="end1" depart="551.345889" />
    <trip id="start2Toend1_32" type="conventional"  from="start2" to="end1" depart="552.041488" />
    <trip id="start1Toend1_29" type="conventional"  from="start1" to="end1" depart="556.816277" />
    <trip id="start2Toend1_33" type="conventional"  from="start2" to="end1" depart="559.025544" />
    <trip id="start1Toend2_33" type="conventional"  from="start1" to="end2" depart="561.044976" />
    <trip id="start1Toend2_34" type="conventional"  from="start1" to="end2" depart="562.665380" />
    <trip id="start1Toend1_30" type="conventional"  from="start1" to="end1" depart="562.809160" />
    <trip id="start2Toend2_32" type="conventional"  from="start2" to="end2" depart="564.622889" />
    <trip id="start1Toend1_31" type="conventional"  from="start1" to="end1" depart="567.665394" />
    <trip id="start2Toend2_33" type="conventional"  from="start2" to="end2" depart="571.567111" />
    <trip id="start1Toend1_32" type="conventional"  from="start1" to="end1" depart="571.948376" />
    <trip id="start1Toend1_33" type="conventional"  from="start1" to="end1" depart="574.594587" />
    <trip id="start1Toend2_35" type="conventional"  from="start1" to="end2" depart="584.503578" />
    <trip id="start2Toend1_34" type="conventional"  from="start2" to="end1" depart="585.780493" />
    <trip id="start1Toend2_36" type="conventional"  from="start1" to="end2" depart="597.030834" />
    <trip id="start1Toend2_37" type="conventional"  from="start1" to="end2" depart="603.720117" />
    <trip id="start1Toend2_38" type="conventional"  from="start1" to="end2" depart="605.103649" />
    <trip id="start2Toend2_34" type="conventional"  from="start2" to="end2" depart="611.951867" />
    <trip id="start2Toend2_35" type="conventional"  from="start2" to="end2" depart="618.037461" />
    <trip id="start1Toend2_39" type="conventional"  from="start1" to="end2" depart="622.775316" />
    <trip id="start2Toend1_35" type="conventional"  from="start2" to="end1" depart="628.701736" />
    <trip id="start2Toend1_36" type="conventional"  from="start2" to="end1" depart="629.714071" />
    <trip id="start2Toend1_37" type="conventional"  from="start2" to="end1" depart="629.851115" />
    <trip id="start2Toend1_38" type="conventional"  from="start2" to="end1" depart="651.506545" />
    <trip id="start2Toend2_36" type="conventional"  from="start2" to="end2" depart="653.365027" />
    <trip id="start2Toend2_37" type="conventional"  from="start2" to="end2" depart="659.735068" />
    <trip id="start2Toend1_39" type="conventional"  from="start2" to="end1" depart="659.795381" />
    <trip id="start1Toend2_40" type="conventional"  from="start1" to="end2" depart="661.782549" />
    <trip id="start2Toend2_38" type="conventional"  from="start2" to="end2" depart="663.552779" />
    <trip id="start2Toend2_39" type="conventional"  from="start2" to="end2" depart="664.282996" />
    <trip id="start2Toend1_40" type="conventional"  from="start2" to="end1" depart="666.967430" />
    <trip id="start1Toend2_41" type="conventional"  from="start1" to="end2" depart="672.883770" />
    <trip id="start1Toend1_34" type="conventional"  from="start1" to="end1" depart="673.219401" />
    <trip id="start2Toend1_41" type="conventional"  from="start2" to="end1" depart="675.678967" />
    <trip id="start1Toend2_42" type="conventional"  from="start1" to="end2" depart="682.171736" />
    <trip id="start2Toend1_42" type="conventional"  from="start2" to="end1" depart="688.226068" />
    <trip id="start2Toend1_43" type="conventional"  from="start2" to="end1" depart="689.905278" />
    <trip id="start2Toend1_44" type="conventional"  from="start2" to="end1" depart="691.265583" />
    <trip id="start1Toend1_35" type="conventional"  from="start1" to="end1" depart="700.143031" />
    <trip id="start2Toend2_40" type="conventional"  from="start2" to="end2" depart="702.740545" />
    <trip id="start2Toend1_45" type="conventional"  from="start2" to="end1" depart="715.739263" />
    <trip id="start1Toend1_36" type="conventional"  from="start1" to="end1" depart="716.184638" />
    <trip id="start1Toend1_37" type="conventional"  from="start1" to="end1" depart="717.141476" />
    <trip id="start2Toend2_41" type="conventional"  from="start2" to="end2" depart="717.855873" />
    <trip id="start2Toend2_42" type="conventional"  from="start2" to="end2" depart="724.494702" />
    <trip id="start1Toend2_43" type="conventional"  from="start1" to="end2" depart="735.112048" />
    <trip id="start2Toend2_43" type="conventional"  from="start2" to="end2" depart="735.642872" />
    <trip id="start1Toend1_38" type="conventional"  from="start1" to="end1" depart="737.142221" />
    <trip id="start1Toend2_44" type="conventional"  from="start1" to="end2" depart="737.285892" />
    <trip id="start2Toend1_46" type="conventional"  from="start2" to="end1" depart="742.133455" />
    <trip id="start1Toend2_45" type="conventional"  from="start1" to="end2" depart="744.864887" />
    <trip id="start1Toend1_39" type="conventional"  from="start1" to="end1" depart="747.672669" />
    <trip id="start1Toend2_46" type="conventional"  from="start1" to="end2" depart="750.862406" />
    <trip id="start1Toend1_40" type="conventional"  from="start1" to="end1" depart="759.747901" />
    <trip id="start2Toend2_44" type="conventional"  from="start2" to="end2" depart="766.885403" />
    <trip id="start2Toend1_47" type="conventional"  from="start2" to="end1" depart="771.763900" />
    <trip id="start2Toend1_48" type="conventional"  from="start2" to="end1" depart="773.294920" />
    <trip id="start2Toend2_45" type="conventional"  from="start2" to="end2" depart="775.731604" />
    <trip id="start2Toend1_49" type="conventional"  from="start2" to="end1" depart="778.660433" />
    <trip id="start2Toend1_50" type="conventional"  from="start2" to="end1" depart="779.191922" />
    <trip id="start1Toend2_47" type="conventional"  from="start1" to="end2" depart="790.855687" />
    <trip id="start1Toend2_48" type="conventional"  from="start1" to="end2" depart="791.106586" />
    <trip id="start2Toend2_46" type="conventional"  from="start2" to="end2" depart="793.705232" />
    <trip id="start2Toend2_47" type="conventional"  from="start2" to="end2" depart="795.138238" />
    <trip id="start2Toend1_51" type="conventional"  from="start2" to="end1" depart="796.787629" />
    <trip id="start2Toend2_48" type="conventional"  from="start2" to="end2" depart="801.038482" />
    <trip id="start2Toend1_52" type="conventional"  from="start2" to="end1" depart="807.793878" />
    <trip id="start2Toend2_49" type="conventional"  from="start2" to="end2" depart="814.059466" />
    <trip id="start2Toend2_50" type="conventional"  from="start2" to="end2" depart="819.109355" />
    <trip id="start1Toend2_49" type="conventional"  from="start1" to="end2" depart="826.980785" />
    <trip id="start1Toend1_41" type="conventional"  from="start1" to="end1" depart="836.924980" />
    <trip id="start2Toend1_53" type="conventional"  from="start2" to="end1" depart="839.126212" />
    <trip id="start1Toend1_42" type="conventional"  from="start1" to="end1" depart="840.083715" />
    <trip id="start2Toend1_54" type="conventional"  from="start2" to="end1" depart="845.219018" />
    <trip id="start2Toend2_51" type="conventional"  from="start2" to="end2" depart="848.166337" />
    <trip id="start2Toend2_52" type="conventional"  from="start2" to="end2" depart="856.113137" />
    <trip id="start1Toend1_43" type="conventional"  from="start1" to="end1" depart="859.331512" />
    <trip id="start2Toend2_53" type="conventional"  from="start2" to="end2" depart="868.872628" />
    <trip id="start2Toend2_54" type="conventional"  from="start2" to="end2" depart="870.542815" />
    <trip id="start1Toend1_44" type="conventional"  from="start1" to="end1" depart="872.939922" />
    <trip id="start1Toend2_50" type="conventional"  from="start1" to="end2" depart="875.815476" />
    <trip id="start1Toend1_45" type="conventional"  from="start1" to="end1" depart="885.714595" />
    <trip id="start1Toend1_46" type="conventional"  from="start1" to="end1" depart="889.770586" />
    <trip id="start2Toend2_55" type="conventional"  from="start2" to="end2" depart="905.496283" />
    <trip id="start1Toend2_51" type="conventional"  from="start1" to="end2" depart="906.992840" />
    <trip id="start2Toend2_56" type="conventional"  from="start2" to="end2" depart="910.236473" />
    <trip id="start1Toend1_47" type="conventional"  from="start1" to="end1" depart="911.509989" />
    <trip id="start1Toend1_48" type="conventional"  from="start1" to="end1" depart="912.428933" />
    <trip id="start2Toend2_57" type="conventional"  from="start2" to="end2" depart="913.439977" />
    <trip id="start1Toend1_49" type="conventional"  from="start1" to="end1" depart="914.755161" />
    <trip id="start2Toend1_55" type="conventional"  from="start2" to="end1" depart="918.312003" />
    <trip id="start1Toend2_52" type="conventional"  from="start1" to="end2" depart="921.833320" />
    <trip id="start2Toend2_58" type="conventional"  from="start2" to="end2" depart="929.006409" />
    <trip id="start2Toend1_56" type="conventional"  from="start2" to="end1" depart="932.956297" />
    <trip id="start2Toend1_57" type="conventional"  from="start2" to="end1" depart="933.186281" />
    <trip id="start2Toend2_59" type="conventional"  from="start2" to="end2" depart="933.954340" />
    <trip id="start1Toend2_53" type="conventional"  from="start1" to="end2" depart="936.622525" />
    <trip id="start1Toend2_54" type="conventional"  from="start1" to="end2" depart="938.584449" />
    <trip id="start2Toend2_60" type="conventional"  from="start2" to="end2" depart="945.786457" />
    <trip id="start2Toend2_61" type="conventional"  from="start2" to="end2" depart="948.741484" />
    <trip id="start2Toend2_62" type="conventional"  from="start2" to="end2" depart="950.147769" />
    <trip id="start2Toend1_58" type="conventional"  from="start2" to="end1" depart="953.345926" />
    <trip id="start2Toend2_63" type="conventional"  from="start2" to="end2" depart="959.145772" />
    <trip id="start1Toend2_55" type="conventional"  from="start1" to="end2" depart="961.792575" />
    <trip id="start2Toend1_59" type="conventional"  from="start2" to="end1" depart="971.965894" />
    <trip id="start1Toend1_50" type="conventional"  from="start1" to="end1" depart="974.610062" />
    <trip id="start1Toend2_56" type="conventional"  from="start1" to="end2" depart="979.529018" />
    <trip id="start1Toend1_51" type="conventional"  from="start1" to="end1" depart="979.855944" />
    <trip id="start1Toend1_52" type="conventional"  from="start1" to="end1" depart="980.566013" />
    <trip id="start1Toend2_57" type="conventional"  from="start1" to="end2" depart="982.413551" />
    <trip id="start2Toend1_60" type="conventional"  from="start2" to="end1" depart="985.352929" />
    <trip id="start2Toend2_64" type="conventional"  from="start2" to="end2" depart="985.507486" />
    <trip id="start2Toend2_65" type="conventional"  from="start2" to="end2" depart="993.408646" />
    <trip id="start2Toend2_66" type="conventional"  from="start2" to="end2" depart="1004.365904" />
    <trip id="start2Toend1_61" type="conventional"  from="start2" to="end1" depart="1006.739383" />
    <trip id="start1Toend1_53" type="conventional"  from="start1" to="end1" depart="1014.890681" />
    <trip id="start2Toend1_62" type="conventional"  from="start2" to="end1" depart="1015.644384" />
    <trip id="start1Toend1_54" type="conventional"  from="start1" to="end1" depart="1016.378756" />
    <trip id="start1Toend2_58" type="conventional"  from="start1" to="end2" depart="1018.659347" />
    <trip id="start2Toend2_67" type="conventional"  from="start2" to="end2" depart="1022.747906" />
    <trip id="start2Toend2_68" type="conventional"  from="start2" to="end2" depart="1028.544273" />
    <trip id="start1Toend2_59" type="conventional"  from="start1" to="end2" depart="1032.393151" />
    <trip id="start2Toend1_63" type="conventional"  from="start2" to="end1" depart="1034.131797" />
    <trip id="start1Toend2_60" type="conventional"  from="start1" to="end2" depart="1038.442783" />
    <trip id="start1Toend1_55" type="conventional"  from="start1" to="end1" depart="1051.598815" />
    <trip id="start1Toend1_56" type="conventional"  from="start1" to="end1" depart="1052.516291" />
    <trip id="start2Toend1_64" type="conventional"  from="start2" to="end1" depart="1060.010262" />
    <trip id="start2Toend1_65" type="conventional"  from="start2" to="end1" depart="1061.423393" />
    <trip id="start1Toend1_57" type="conventional"  from="start1" to="end1" depart="1070.166287" />
    <trip id="start2Toend2_69" type="conventional"  from="start2" to="end2" depart="1073.243466" />
    <trip id="start2Toend2_70" type="conventional"  from="start2" to="end2" depart="1082.362627" />
    <trip id="start1Toend1_58" type="conventional"  from="start1" to="end1" depart="1085.076175" />
    <trip id="start1Toend2_61" type="conventional"  from="start1" to="end2" depart="1085.182586" />
    <trip id="start1Toend2_62" type="conventional"  from="start1" to="end2" depart="1094.871812" />
    <trip id="start1Toend1_59" type="conventional"  from="start1" to="end1" depart="1098.730306" />
    <trip id="start1Toend2_63" type="conventional"  from="start1" to="end2" depart="1099.840709" />
    <trip id="start1Toend1_60" type="conventional"  from="start1" to="end1" depart="1103.748675" />
    <trip id="start2Toend1_66" type="conventional"  from="start2" to="end1" depart="1104.334391" />
    <trip id="start2Toend2_71" type="conventional"  from="start2" to="end2" depart="1111.375525" />
    <trip id="start2Toend2_72" type="conventional"  from="start2" to="end2" depart="1123.736078" />
    <trip id="start1Toend1_61" type="conventional"  from="start1" to="end1" depart="1129.915241" />
    <trip id="start2Toend1_67" type="conventional"  from="start2" to="end1" depart="1138.320845" />
    <trip id="start1Toend1_62" type="conventional"  from="start1" to="end1" depart="1141.461951" />
    <trip id="start1Toend2_64" type="conventional"  from="start1" to="end2" depart="1145.895355" />
    <trip id="start1Toend1_63" type="conventional"  from="start1" to="end1" depart="1150.819300" />
    <trip id="start2Toend2_73" type="conventional"  from="start2" to="end2" depart="1151.626889" />
    <trip id="start1Toend2_65" type="conventional"  from="start1" to="end2" depart="1151.743667" />
    <trip id="start2Toend1_68" type="conventional"  from="start2" to="end1" depart="1155.888438" />
    <trip id="start1Toend1_64" type="conventional"  from="start1" to="end1" depart="1159.696477" />
    <trip id="start1Toend2_66" type="conventional"  from="start1" to="end2" depart="1162.150173" />
    <trip id="start2Toend1_69" type="conventional"  from="start2" to="end1" depart="1163.925521" />
    <trip id="start1Toend1_65" type="conventional"  from="start1" to="end1" depart="1166.997424" />
    <trip id="start2Toend1_70" type="conventional"  from="start2" to="end1" depart="1176.806977" />
    <trip id="start1Toend1_66" type="conventional"  from="start1" to="end1" depart="1178.599610" />
    <trip id="start1Toend2_67" type="conventional"  from="start1" to="end2" depart="1179.590259" />