<?xml version="1.0" encoding="UTF-8"?>

<routes>

	<route id="route0" edges="start1 end1" />
    <route id="route1" edges="start1 end2" />
    <route id="route2" edges="start2 end1" />
    <route id="route3" edges="start2 end2" />


    <vType id="conventional" vClass="passenger" tau="5.5" minGap="7.5" carFollowModel="IDM" maxSpeed="40.00"/>
    <vType id="conventional_human" vClass="passenger" tau="5.5" minGap="7.5" carFollowModel="IDM" maxSpeed="40.00" color="52,128,235"/>
    <!--vType id="conventional_human" vClass="passenger" tau="3.5" minGap="5.5" carFollowModel="IDM" maxSpeed="28.00" color="52,128,235"/-->
    <vType id="non_merging" vClass="passenger" tau="5.5" minGap="7.5" carFollowModel="IDM" maxSpeed="40.00"/>
    <vType id="merging" vClass="passenger" carFollowModel="IDM" emergencyDecel="4.5" length="5" tau="0.1" maxSpeed="40.00" color="1,1,0" accel="10.3" decel="1.7" sigma="0.0" minGap="2.0"/>
    <!--vType id="connected" vClass="passenger" tau="2.5" minGap="5.5" carFollowModel="IDM" maxSpeed="28.00" lcCooperative="0.0" color="1,1,0" lcStrategic="1.0" accel="3.0" decel="1.5" emergencyDecel="4.5" lcSpeedGain="0.3" sigma="0.0" lcKeepRight="0.3"-->
    <vType id="connected" vClass="passenger" tau="5.5" minGap="7.5" carFollowModel="IDM" maxSpeed="1.00" emergencyDecel="4.5"/>
    <vType id="routeByDistance" maxSpeed="1"/>
    <vType id="connected_pCatchupFollower" vClass="passenger" carFollowModel="IDM" emergencyDecel="4.5" length="5" tau="0.1" maxSpeed="40.00" color="1,1,0" accel="10.3" decel="1.7" sigma="0.0" minGap="2.0"/>
    <vType id="connected_pCatchup" vClass="passenger" tau="0.1" carFollowModel="IDM" emergencyDecel="4.5" maxSpeed="40.00" color="0,0.8,0.3" accel="10.3" decel="1.7" sigma="0.0" minGap="2.0"/>
    <vType id="connected_pFollower" vClass="passenger" tau="0.1" carFollowModel="IDM" maxSpeed="40.00" color="1,1,0" accel="10.3" decel="1.7" sigma="0.0"  minGap="2.0" emergencyDecel="4.5"/>
    <vType id="connected_pLeader" vClass="passenger" length="5" carFollowModel="IDM" maxSpeed="40.00" lcCooperative="0.0" color="1,1,0" lcStrategic="1.0" accel="13.0" decel="1.5" emergencyDecel="4.5" lcSpeedGain="0.3" sigma="0.0" lcKeepRight="0.3"/>

    
	
    <trip id="start1Toend1_0" type="conventional"  from="start1" to="end1" depart="0.000000" />
    <trip id="start1Toend1_1" type="conventional"  from="start1" to="end1" depart="3.485062" />
    <trip id="start1Toend1_2" type="conventional"  from="start1" to="end1" depart="28.901099" />
    <trip id="start1Toend1_3" type="conventional"  from="start1" to="end1" depart="41.333301" />
    <trip id="start1Toend1_4" type="conventional"  from="start1" to="end1" depart="45.448773" />
    <trip id="start1Toend1_5" type="conventional"  from="start1" to="end1" depart="56.186971" />
    <trip id="start1Toend1_6" type="conventional"  from="start1" to="end1" depart="88.039383" />
    <trip id="start1Toend1_7" type="conventional"  from="start1" to="end1" depart="90.959267" />
    <trip id="start1Toend1_8" type="conventional"  from="start1" to="end1" depart="108.799167" />
    <trip id="start1Toend1_9" type="conventional"  from="start1" to="end1" depart="124.500220" />
</routes>
