<?xml version="1.0" encoding="UTF-8"?>

<routes>

	<route id="route0" edges="start1 end1" />
    <route id="route1" edges="start1 end2" />
    <route id="route2" edges="start2 end1" />
    <route id="route3" edges="start2 end2" />


    <vType id="conventional" vClass="passenger" tau="5.5" minGap="7.5" carFollowModel="IDM" maxSpeed="40.00"/>
    <vType id="conventional_human" vClass="passenger" tau="5.5" minGap="7.5" carFollowModel="IDM" maxSpeed="40.00" color="52,128,235"/>
    <!--vType id="conventional_human" vClass="passenger" tau="3.5" minGap="5.5" carFollowModel="IDM" maxSpeed="28.00" color="52,128,235"/-->
    <vType id="non_merging" vClass="passenger" tau="5.5" minGap="7.5" carFollowModel="IDM" maxSpeed="40.00"/>
    <vType id="merging" vClass="passenger" carFollowModel="IDM" emergencyDecel="4.5" length="5" tau="0.1" maxSpeed="40.00" color="1,1,0" accel="10.3" decel="1.7" sigma="0.0" minGap="2.0"/>
    <!--vType id="connected" vClass="passenger" tau="2.5" minGap="5.5" carFollowModel="IDM" maxSpeed="28.00" lcCooperative="0.0" color="1,1,0" lcStrategic="1.0" accel="3.0" decel="1.5" emergencyDecel="4.5" lcSpeedGain="0.3" sigma="0.0" lcKeepRight="0.3"-->
    <vType id="connected" vClass="passenger" tau="5.5" minGap="7.5" carFollowModel="IDM" maxSpeed="1.00" emergencyDecel="4.5"/>
    <vType id="routeByDistance" maxSpeed="1"/>
    <vType id="connected_pCatchupFollower" vClass="passenger" carFollowModel="IDM" emergencyDecel="4.5" length="5" tau="0.1" maxSpeed="40.00" color="1,1,0" accel="10.3" decel="1.7" sigma="0.0" minGap="2.0"/>
    <vType id="connected_pCatchup" vClass="passenger" tau="0.1" carFollowModel="IDM" emergencyDecel="4.5" maxSpeed="40.00" color="0,0.8,0.3" accel="10.3" decel="1.7" sigma="0.0" minGap="2.0"/>
    <vType id="connected_pFollower" vClass="passenger" tau="0.1" carFollowModel="IDM" maxSpeed="40.00" color="1,1,0" accel="10.3" decel="1.7" sigma="0.0"  minGap="2.0" emergencyDecel="4.5"/>
    <vType id="connected_pLeader" vClass="passenger" length="5" carFollowModel="IDM" maxSpeed="40.00" lcCooperative="0.0" color="1,1,0" lcStrategic="1.0" accel="13.0" decel="1.5" emergencyDecel="4.5" lcSpeedGain="0.3" sigma="0.0" lcKeepRight="0.3"/>

    
	
    <trip id="start1Toend1_0" type="conventional"  from="start1" to="end1" depart="0.000000" />
    <trip id="start1Toend1_1" type="conventional"  from="start1" to="end1" depart="78.281757" />
    <trip id="start1Toend1_2" type="conventional"  from="start1" to="end1" depart="81.678197" />
    <trip id="start1Toend1_3" type="conventional"  from="start1" to="end1" depart="94.985203" />
    <trip id="start1Toend1_4" type="conventional"  from="start1" to="end1" depart="156.604644" />
    <trip id="start1Toend1_5" type="conventional"  from="start1" to="end1" depart="185.991939" />
    <trip id="start1Toend1_6" type="conventional"  from="start1" to="end1" depart="208.364683" />
    <trip id="start1Toend1_7" type="conventional"  from="start1" to="end1" depart="233.404511" />
    <trip id="start1Toend1_8" type="conventional"  from="start1" to="end1" depart="238.798121" />
    <trip id="start1Toend1_9" type="conventional"  from="start1" to="end1" depart="263.273853" />
    <trip id="start1Toend1_10" type="conventional"  from="start1" to="end1" depart="264.052370" />
    <trip id="start1Toend1_11" type="conventional"  from="start1" to="end1" depart="266.587107" />
    <trip id="start1Toend1_12" type="conventional"  from="start1" to="end1" depart="270.579270" />
    <trip id="start1Toend1_13" type="conventional"  from="start1" to="end1" depart="301.962337" />
    <trip id="start1Toend1_14" type="conventional"  from="start1" to="end1" depart="311.544971" />
    <trip id="start1Toend1_15" type="conventional"  from="start1" to="end1" depart="322.228288" />
    <trip id="start1Toend1_16" type="conventional"  from="start1" to="end1" depart="344.348005" />
    <trip id="start1Toend1_17" type="conventional"  from="start1" to="end1" depart="349.735454" />
    <trip id="start1Toend1_18" type="conventional"  from="start1" to="end1" depart="383.156014" />
    <trip id="start1Toend1_19" type="conventional"  from="start1" to="end1" depart="398.060240" />
    <trip id="start1Toend1_20" type="conventional"  from="start1" to="end1" depart="449.531992" />
    <trip id="start1Toend1_21" type="conventional"  from="start1" to="end1" depart="469.384212" />
    <trip id="start1Toend1_22" type="conventional"  from="start1" to="end1" depart="512.634647" />
    <trip id="start1Toend1_23" type="conventional"  from="start1" to="end1" depart="534.982544" />
    <trip id="start1Toend1_24" type="conventional"  from="start1" to="end1" depart="540.873845" />
    <trip id="start1Toend1_25" type="conventional"  from="start1" to="end1" depart="562.848536" />
    <trip id="start1Toend1_26" type="conventional"  from="start1" to="end1" depart="636.053868" />
    <trip id="start1Toend1_27" type="conventional"  from="start1" to="end1" depart="671.310138" />
    <trip id="start1Toend1_28" type="conventional"  from="start1" to="end1" depart="682.125918" />
    <trip id="start1Toend1_29" type="conventional"  from="start1" to="end1" depart="782.919583" />
    <trip id="start1Toend1_30" type="conventional"  from="start1" to="end1" depart="787.031083" />
    <trip id="start1Toend1_31" type="conventional"  from="start1" to="end1" depart="812.058751" />
    <trip id="start1Toend1_32" type="conventional"  from="start1" to="end1" depart="817.086605" />
    <trip id="start1Toend1_33" type="conventional"  from="start1" to="end1" depart="832.445639" />
    <trip id="start1Toend1_34" type="conventional"  from="start1" to="end1" depart="849.762383" />
    <trip id="start1Toend1_35" type="conventional"  from="start1" to="end1" depart="853.826078" />
    <trip id="start1Toend1_36" type="conventional"  from="start1" to="end1" depart="859.463740" />
    <trip id="start1Toend1_37" type="conventional"  from="start1" to="end1" depart="864.762388" />
    <trip id="start1Toend1_38" type="conventional"  from="start1" to="end1" depart="882.427124" />
    <trip id="start1Toend1_39" type="conventional"  from="start1" to="end1" depart="886.633222" />
    <trip id="start1Toend1_40" type="conventional"  from="start1" to="end1" depart="891.707969" />
    <trip id="start1Toend1_41" type="conventional"  from="start1" to="end1" depart="951.610304" />
    <trip id="start1Toend1_42" type="conventional"  from="start1" to="end1" depart="960.748209" />
    <trip id="start1Toend1_43" type="conventional"  from="start1" to="end1" depart="960.880944" />
    <trip id="start1Toend1_44" type="conventional"  from="start1" to="end1" depart="968.722624" />
    <trip id="start1Toend1_45" type="conventional"  from="start1" to="end1" depart="975.596925" />
    <trip id="start1Toend1_46" type="conventional"  from="start1" to="end1" depart="988.262464" />
    <trip id="start1Toend1_47" type="conventional"  from="start1" to="end1" depart="1015.005718" />
    <trip id="start1Toend1_48" type="conventional"  from="start1" to="end1" depart="1019.646575" />
    <trip id="start1Toend1_49" type="conventional"  from="start1" to="end1" depart="1041.880498" />
    <trip id="start1Toend1_50" type="conventional"  from="start1" to="end1" depart="1042.588030" />
    <trip id="start1Toend1_51" type="conventional"  from="start1" to="end1" depart="1068.943922" />
    <trip id="start1Toend1_52" type="conventional"  from="start1" to="end1" depart="1073.558966" />
    <trip id="start1Toend1_53" type="conventional"  from="start1" to="end1" depart="1075.794951" />
    <trip id="start1Toend1_54" type="conventional"  from="start1" to="end1" depart="1089.412031" />
    <trip id="start1Toend1_55" type="conventional"  from="start1" to="end1" depart="1093.232779" />
    <trip id="start1Toend1_56" type="conventional"  from="start1" to="end1" depart="1105.242779" />
    <trip id="start1Toend1_57" type="conventional"  from="start1" to="end1" depart="1106.040910" />
    <trip id="start1Toend1_58" type="conventional"  from="start1" to="end1" depart="1108.503638" />
    <trip id="start1Toend1_59" type="conventional"  from="start1" to="end1" depart="1115.410379" />
    <trip id="start1Toend1_60" type="conventional"  from="start1" to="end1" depart="1127.509235" />
    <trip id="start1Toend1_61" type="conventional"  from="start1" to="end1" depart="1139.374643" />
    <trip id="start1Toend1_62" type="conventional"  from="start1" to="end1" depart="1154.395693" />
    <trip id="start1Toend1_63" type="conventional"  from="start1" to="end1" depart="1165.882706" />
    <trip id="start1Toend1_64" type="conventional"  from="start1" to="end1" depart="1170.905339" />
    <trip id="start1Toend1_65" type="conventional"  from="start1" to="end1" depart="1173.778025" />
    <trip id="start1Toend1_66" type="conventional"  from="start1" to="end1" depart="1200.074493" />
    <trip id="start1Toend1_67" type="conventional"  from="start1" to="end1" depart="1202.709991" />
    <trip id="start1Toend1_68" type="conventional"  from="start1" to="end1" depart="1204.101856" />
    <trip id="start1Toend1_69" type="conventional"  from="start1" to="end1" depart="1214.209467" />
    <trip id="start1Toend1_70" type="conventional"  from="start1" to="end1" depart="1225.054328" />
    <trip id="start1Toend1_71" type="conventional"  from="start1" to="end1" depart="1229.458417" />
    <trip id="start1Toend1_72" type="conventional"  from="start1" to="end1" depart="1232.164344" />
    <trip id="start1Toend1_73" type="conventional"  from="start1" to="end1" depart="1251.742700" />
    <trip id="start1Toend1_74" type="conventional"  from="start1" to="end1" depart="1256.991395" />
    <trip id="start1Toend1_75" type="conventional"  from="start1" to="end1" depart="1258.339921" />
    <trip id="start1Toend1_76" type="conventional"  from="start1" to="end1" depart="1261.141541" />
    <trip id="start1Toend1_77" type="conventional"  from="start1" to="end1" depart="1261.787814" />
    <trip id="start1Toend1_78" type="conventional"  from="start1" to="end1" depart="1287.626018" />
    <trip id="start1Toend1_79" type="conventional"  from="start1" to="end1" depart="1310.002055" />
    <trip id="start1Toend1_80" type="conventional"  from="start1" to="end1" depart="1349.449402" />
    <trip id="start1Toend1_81" type="conventional"  from="start1" to="end1" depart="1364.662186" />
    <trip id="start1Toend1_82" type="conventional"  from="start1" to="end1" depart="1373.807221" />
    <trip id="start1Toend1_83" type="conventional"  from="start1" to="end1" depart="1410.284159" />
    <trip id="start1Toend1_84" type="conventional"  from="start1" to="end1" depart="1449.814987" />
    <trip id="start1Toend1_85" type="conventional"  from="start1" to="end1" depart="1483.924697" />
    <trip id="start1Toend1_86" type="conventional"  from="start1" to="end1" depart="1490.735004" />
    <trip id="start1Toend1_87" type="conventional"  from="start1" to="end1" depart="1511.731987" />
    <trip id="start1Toend1_88" type="conventional"  from="start1" to="end1" depart="1518.040734" />
    <trip id="start1Toend1_89" type="conventional"  from="start1" to="end1" depart="1535.531179" />
    <trip id="start1Toend1_90" type="conventional"  from="start1" to="end1" depart="1574.968112" />
    <trip id="start1Toend1_91" type="conventional"  from="start1" to="end1" depart="1581.352816" />
    <trip id="start1Toend1_92" type="conventional"  from="start1" to="end1" depart="1600.672781" />
    <trip id="start1Toend1_93" type="conventional"  from="start1" to="end1" depart="1610.297966" />
    <trip id="start1Toend1_94" type="conventional"  from="start1" to="end1" depart="1610.335721" />
    <trip id="start1Toend1_95" type="conventional"  from="start1" to="end1" depart="1612.335186" />
    <trip id="start1Toend1_96" type="conventional"  from="start1" to="end1" depart="1616.903621" />
    <trip id="start1Toend1_97" type="conventional"  from="start1" to="end1" depart="1617.526125" />
    <trip id="start1Toend1_98" type="conventional"  from="start1" to="end1" depart="1621.647186" />
    <trip id="start1Toend1_99" type="conventional"  from="start1" to="end1" depart="1625.039811" />
    <trip id="start1Toend1_100" type="conventional"  from="start1" to="end1" depart="1654.494685" />
    <trip id="start1Toend1_101" type="conventional"  from="start1" to="end1" depart="1662.065427" />
    <trip id="start1Toend1_102" type="conventional"  from="start1" to="end1" depart="1674.973120" />
    <trip id="start1Toend1_103" type="conventional"  from="start1" to="end1" depart="1683.054044" />
    <trip id="start1Toend1_104" type="conventional"  from="start1" to="end1" depart="1696.597763" />
    <trip id="start1Toend1_105" type="conventional"  from="start1" to="end1" depart="1699.832855" />
    <trip id="start1Toend1_106" type="conventional"  from="start1" to="end1" depart="1715.916795" />
    <trip id="start1Toend1_107" type="conventional"  from="start1" to="end1" depart="1726.038279" />
    <trip id="start1Toend1_108" type="conventional"  from="start1" to="end1" depart="1739.669367" />
    <trip id="start1Toend1_109" type="conventional"  from="start1" to="end1" depart="1745.283148" />
    <trip id="start1Toend1_110" type="conventional"  from="start1" to="end1" depart="1749.716124" />
    <trip id="start1Toend1_111" type="conventional"  from="start1" to="end1" depart="1761.359301" />
    <trip id="start1Toend1_112" type="conventional"  from="start1" to="end1" depart="1799.677849" />
    <trip id="start1Toend1_113" type="conventional"  from="start1" to="end1" depart="1802.618306" />
    <trip id="start1Toend1_114" type="conventional"  from="start1" to="end1" depart="1832.992610" />
    <trip id="start1Toend1_115" type="conventional"  from="start1" to="end1" depart="1862.048431" />
    <trip id="start1Toend1_116" type="conventional"  from="start1" to="end1" depart="1870.542451" />
    <trip id="start1Toend1_117" type="conventional"  from="start1" to="end1" depart="1884.696239" />
    <trip id="start1Toend1_118" type="conventional"  from="start1" to="end1" depart="1926.151381" />
    <trip id="start1Toend1_119" type="conventional"  from="start1" to="end1" depart="1926.876794" />
    <trip id="start1Toend1_120" type="conventional"  from="start1" to="end1" depart="1960.002310" />
    <trip id="start1Toend1_121" type="conventional"  from="start1" to="end1" depart="1962.964562" />
    <trip id="start1Toend1_122" type="conventional"  from="start1" to="end1" depart="1979.452721" />
    <trip id="start1Toend1_123" type="conventional"  from="start1" to="end1" depart="1979.531334" />
    <trip id="start1Toend1_124" type="conventional"  from="start1" to="end1" depart="1990.293327" />
    <trip id="start1Toend1_125" type="conventional"  from="start1" to="end1" depart="2009.364702" />
    <trip id="start1Toend1_126" type="conventional"  from="start1" to="end1" depart="2083.914005" />
    <trip id="start1Toend1_127" type="conventional"  from="start1" to="end1" depart="2090.327723" />
    <trip id="start1Toend1_128" type="conventional"  from="start1" to="end1" depart="2095.201368" />
    <trip id="start1Toend1_129" type="conventional"  from="start1" to="end1" depart="2099.850123" />
    <trip id="start1Toend1_130" type="conventional"  from="start1" to="end1" depart="2103.970265" />
    <trip id="start1Toend1_131" type="conventional"  from="start1" to="end1" depart="2108.332148" />
    <trip id="start1Toend1_132" type="conventional"  from="start1" to="end1" depart="2128.358290" />
    <trip id="start1Toend1_133" type="conventional"  from="start1" to="end1" depart="2150.835013" />
    <trip id="start1Toend1_134" type="conventional"  from="start1" to="end1" depart="2164.853695" />
    <trip id="start1Toend1_135" type="conventional"  from="start1" to="end1" depart="2204.267274" />
    <trip id="start1Toend1_136" type="conventional"  from="start1" to="end1" depart="2218.761557" />
    <trip id="start1Toend1_137" type="conventional"  from="start1" to="end1" depart="2223.647458" />
    <trip id="start1Toend1_138" type="conventional"  from="start1" to="end1" depart="2263.467347" />
    <trip id="start1Toend1_139" type="conventional"  from="start1" to="end1" depart="2271.094340" />
    <trip id="start1Toend1_140" type="conventional"  from="start1" to="end1" depart="2296.972405" />
    <trip id="start1Toend1_141" type="conventional"  from="start1" to="end1" depart="2316.228010" />
    <trip id="start1Toend1_142" type="conventional"  from="start1" to="end1" depart="2340.050720" />
    <trip id="start1Toend1_143" type="conventional"  from="start1" to="end1" depart="2354.332074" />
    <trip id="start1Toend1_144" type="conventional"  from="start1" to="end1" depart="2384.134252" />
    <trip id="start1Toend1_145" type="conventional"  from="start1" to="end1" depart="2386.327836" />
    <trip id="start1Toend1_146" type="conventional"  from="start1" to="end1" depart="2410.659568" />
    <trip id="start1Toend1_147" type="conventional"  from="start1" to="end1" depart="2450.303811" />
    <trip id="start1Toend1_148" type="conventional"  from="start1" to="end1" depart="2463.150781" />
    <trip id="start1Toend1_149" type="conventional"  from="start1" to="end1" depart="2484.986346" />
    <trip id="start1Toend1_150" type="conventional"  from="start1" to="end1" depart="2493.894005" />
    <trip id="start1Toend1_151" type="conventional"  from="start1" to="end1" depart="2508.858242" />
    <trip id="start1Toend1_152" type="conventional"  from="start1" to="end1" depart="2516.382602" />
    <trip id="start1Toend1_153" type="conventional"  from="start1" to="end1" depart="2543.059444" />
    <trip id="start1Toend1_154" type="conventional"  from="start1" to="end1" depart="2573.441856" />
    <trip id="start1Toend1_155" type="conventional"  from="start1" to="end1" depart="2580.786864" />
    <trip id="start1Toend1_156" type="conventional"  from="start1" to="end1" depart="2597.959444" />
    <trip id="start1Toend1_157" type="conventional"  from="start1" to="end1" depart="2598.857890" />
    <trip id="start1Toend1_158" type="conventional"  from="start1" to="end1" depart="2608.570805" />
    <trip id="start1Toend1_159" type="conventional"  from="start1" to="end1" depart="2612.162174" />
    <trip id="start1Toend1_160" type="conventional"  from="start1" to="end1" depart="2629.079255" />
    <trip id="start1Toend1_161" type="conventional"  from="start1" to="end1" depart="2632.354042" />
    <trip id="start1Toend1_162" type="conventional"  from="start1" to="end1" depart="2634.014548" />
    <trip id="start1Toend1_163" type="conventional"  from="start1" to="end1" depart="2685.514329" />
    <trip id="start1Toend1_164" type="conventional"  from="start1" to="end1" depart="2698.064620" />
    <trip id="start1Toend1_165" type="conventional"  from="start1" to="end1" depart="2711.410337" />
    <trip id="start1Toend1_166" type="conventional"  from="start1" to="end1" depart="2723.231244" />
    <trip id="start1Toend1_167" type="conventional"  from="start1" to="end1" depart="2731.662381" />
    <trip id="start1Toend1_168" type="conventional"  from="start1" to="end1" depart="2753.738997" />
    <trip id="start1Toend1_169" type="conventional"  from="start1" to="end1" depart="2754.690372" />
    <trip id="start1Toend1_170" type="conventional"  from="start1" to="end1" depart="2757.672310" />
    <trip id="start1Toend1_171" type="conventional"  from="start1" to="end1" depart="2761.466018" />
    <trip id="start1Toend1_172" type="conventional"  from="start1" to="end1" depart="2772.971644" />
    <trip id="start1Toend1_173" type="conventional"  from="start1" to="end1" depart="2774.948531" />
    <trip id="start1Toend1_174" type="conventional"  from="start1" to="end1" depart="2785.986099" />
    <trip id="start1Toend1_175" type="conventional"  from="start1" to="end1" depart="2794.474269" />
    <trip id="start1Toend1_176" type="conventional"  from="start1" to="end1" depart="2813.946645" />
    <trip id="start1Toend1_177" type="conventional"  from="start1" to="end1" depart="2864.010141" />
    <trip id="start1Toend1_178" type="conventional"  from="start1" to="end1" depart="2886.177842" />
    <trip id="start1Toend1_179" type="conventional"  from="start1" to="end1" depart="2902.790474" />
    <trip id="start1Toend1_180" type="conventional"  from="start1" to="end1" depart="2905.174507" />
    <trip id="start1Toend1_181" type="conventional"  from="start1" to="end1" depart="2930.731891" />
    <trip id="start1Toend1_182" type="conventional"  from="start1" to="end1" depart="2938.738109" />
    <trip id="start1Toend1_183" type="conventional"  from="start1" to="end1" depart="2942.067898" />
    <trip id="start1Toend1_184" type="conventional"  from="start1" to="end1" depart="2948.248105" />
    <trip id="start1Toend1_185" type="conventional"  from="start1" to="end1" depart="2973.073742" />
    <trip id="start1Toend1_186" type="conventional"  from="start1" to="end1" depart="2980.397445" />
    <trip id="start1Toend1_187" type="conventional"  from="start1" to="end1" depart="2995.516186" />
    <trip id="start1Toend1_188" type="conventional"  from="start1" to="end1" depart="3045.352313" />
    <trip id="start1Toend1_189" type="conventional"  from="start1" to="end1" depart="3087.628754" />
    <trip id="start1Toend1_190" type="conventional"  from="start1" to="end1" depart="3089.135494" />
    <trip id="start1Toend1_191" type="conventional"  from="start1" to="end1" depart="3101.662899" />
    <trip id="start1Toend1_192" type="conventional"  from="start1" to="end1" depart="3105.591262" />
    <trip id="start1Toend1_193" type="conventional"  from="start1" to="end1" depart="3119.317497" />
    <trip id="start1Toend1_194" type="conventional"  from="start1" to="end1" depart="3135.859941" />
    <trip id="start1Toend1_195" type="conventional"  from="start1" to="end1" depart="3224.125711" />
    <trip id="start1Toend1_196" type="conventional"  from="start1" to="end1" depart="3225.478226" />
    <trip id="start1Toend1_197" type="conventional"  from="start1" to="end1" depart="3236.486315" />
    <trip id="start1Toend1_198" type="conventional"  from="start1" to="end1" depart="3252.199590" />
    <trip id="start1Toend1_199" type="conventional"  from="start1" to="end1" depart="3273.707913" />
    <trip id="start1Toend1_200" type="conventional"  from="start1" to="end1" depart="3285.505190" />
    <trip id="start1Toend1_201" type="conventional"  from="start1" to="end1" depart="3285.685635" />
    <trip id="start1Toend1_202" type="conventional"  from="start1" to="end1" depart="3303.442843" />
    <trip id="start1Toend1_203" type="conventional"  from="start1" to="end1" depart="3310.857906" />
    <trip id="start1Toend1_204" type="conventional"  from="start1" to="end1" depart="3324.532277" />
    <trip id="start1Toend1_205" type="conventional"  from="start1" to="end1" depart="3325.032505" />
    <trip id="start1Toend1_206" type="conventional"  from="start1" to="end1" depart="3332.081910" />
    <trip id="start1Toend1_207" type="conventional"  from="start1" to="end1" depart="3341.225752" />
    <trip id="start1Toend1_208" type="conventional"  from="start1" to="end1" depart="3344.176482" />
    <trip id="start1Toend1_209" type="conventional"  from="start1" to="end1" depart="3347.156273" />
    <trip id="start1Toend1_210" type="conventional"  from="start1" to="end1" depart="3352.329440" />
    <trip id="start1Toend1_211" type="conventional"  from="start1" to="end1" depart="3369.484507" />
    <trip id="start1Toend1_212" type="conventional"  from="start1" to="end1" depart="3375.822685" />
    <trip id="start1Toend1_213" type="conventional"  from="start1" to="end1" depart="3388.908684" />
    <trip id="start1Toend1_214" type="conventional"  from="start1" to="end1" depart="3399.175575" />
    <trip id="start1Toend1_215" type="conventional"  from="start1" to="end1" depart="3420.803141" />
    <trip id="start1Toend1_216" type="conventional"  from="start1" to="end1" depart="3440.782878" />
    <trip id="start1Toend1_217" type="conventional"  from="start1" to="end1" depart="3441.740018" />
    <trip id="start1Toend1_218" type="conventional"  from="start1" to="end1" depart="3459.224196" />
    <trip id="start1Toend1_219" type="conventional"  from="start1" to="end1" depart="3461.687469" />
    <trip id="start1Toend1_220" type="conventional"  from="start1" to="end1" depart="3491.093213" />
    <trip id="start1Toend1_221" type="conventional"  from="start1" to="end1" depart="3492.410660" />
    <trip id="start1Toend1_222" type="conventional"  from="start1" to="end1" depart="3498.199411" />
    <trip id="start1Toend1_223" type="conventional"  from="start1" to="end1" depart="3499.990783" />
    <trip id="start1Toend1_224" type="conventional"  from="start1" to="end1" depart="3520.005588" />
    <trip id="start1Toend1_225" type="conventional"  from="start1" to="end1" depart="3523.292335" />
    <trip id="start1Toend1_226" type="conventional"  from="start1" to="end1" depart="3537.346187" />
    <trip id="start1Toend1_227" type="conventional"  from="start1" to="end1" depart="3580.559735" />
    <trip id="start1Toend1_228" type="conventional"  from="start1" to="end1" depart="3590.484968" />
    <trip id="start1Toend1_229" type="conventional"  from="start1" to="end1" depart="3652.969970" />
    <trip id="start1Toend1_230" type="conventional"  from="start1" to="end1" depart="3666.865495" />
    <trip id="start1Toend1_231" type="conventional"  from="start1" to="end1" depart="3672.424324" />
    <trip id="start1Toend1_232" type="conventional"  from="start1" to="end1" depart="3678.182918" />
    <trip id="start1Toend1_233" type="conventional"  from="start1" to="end1" depart="3683.411355" />
    <trip id="start1Toend1_234" type="conventional"  from="start1" to="end1" depart="3701.984782" />
    <trip id="start1Toend1_235" type="conventional"  from="start1" to="end1" depart="3728.796723" />
    <trip id="start1Toend1_236" type="conventional"  from="start1" to="end1" depart="3729.001279" />
    <trip id="start1Toend1_237" type="conventional"  from="start1" to="end1" depart="3746.841843" />
    <trip id="start1Toend1_238" type="conventional"  from="start1" to="end1" depart="3760.774943" />
    <trip id="start1Toend1_239" type="conventional"  from="start1" to="end1" depart="3785.920647" />
    <trip id="start1Toend1_240" type="conventional"  from="start1" to="end1" depart="3790.030246" />
    <trip id="start1Toend1_241" type="conventional"  from="start1" to="end1" depart="3834.153645" />
    <trip id="start1Toend1_242" type="conventional"  from="start1" to="end1" depart="3837.391711" />
    <trip id="start1Toend1_243" type="conventional"  from="start1" to="end1" depart="3842.957172" />
    <trip id="start1Toend1_244" type="conventional"  from="start1" to="end1" depart="3872.669995" />
    <trip id="start1Toend1_245" type="conventional"  from="start1" to="end1" depart="3998.428666" />
    <trip id="start1Toend1_246" type="conventional"  from="start1" to="end1" depart="3999.696848" />
    <trip id="start1Toend1_247" type="conventional"  from="start1" to="end1" depart="4009.028068" />
    <trip id="start1Toend1_248" type="conventional"  from="start1" to="end1" depart="4050.393860" />
    <trip id="start1Toend1_249" type="conventional"  from="start1" to="end1" depart="4052.767188" />
    <trip id="start1Toend1_250" type="conventional"  from="start1" to="end1" depart="4061.651981" />
    <trip id="start1Toend1_251" type="conventional"  from="start1" to="end1" depart="4075.912265" />
    <trip id="start1Toend1_252" type="conventional"  from="start1" to="end1" depart="4080.613709" />
    <trip id="start1Toend1_253" type="conventional"  from="start1" to="end1" depart="4098.860910" />
    <trip id="start1Toend1_254" type="conventional"  from="start1" to="end1" depart="4191.192557" />
    <trip id="start1Toend1_255" type="conventional"  from="start1" to="end1" depart="4195.518361" />
    <trip id="start1Toend1_256" type="conventional"  from="start1" to="end1" depart="4218.766414" />
    <trip id="start1Toend1_257" type="conventional"  from="start1" to="end1" depart="4230.641174" />
    <trip id="start1Toend1_258" type="conventional"  from="start1" to="end1" depart="4235.492296" />
    <trip id="start1Toend1_259" type="conventional"  from="start1" to="end1" depart="4237.598439" />
    <trip id="start1Toend1_260" type="conventional"  from="start1" to="end1" depart="4243.755131" />
    <trip id="start1Toend1_261" type="conventional"  from="start1" to="end1" depart="4279.906452" />
    <trip id="start1Toend1_262" type="conventional"  from="start1" to="end1" depart="4280.854908" />
    <trip id="start1Toend1_263" type="conventional"  from="start1" to="end1" depart="4300.439599" />
    <trip id="start1Toend1_264" type="conventional"  from="start1" to="end1" depart="4319.448751" />
    <trip id="start1Toend1_265" type="conventional"  from="start1" to="end1" depart="4343.902767" />
    <trip id="start1Toend1_266" type="conventional"  from="start1" to="end1" depart="4354.589487" />
    <trip id="start1Toend1_267" type="conventional"  from="start1" to="end1" depart="4386.739860" />
    <trip id="start1Toend1_268" type="conventional"  from="start1" to="end1" depart="4393.717555" />
    <trip id="start1Toend1_269" type="conventional"  from="start1" to="end1" depart="4436.123768" />
    <trip id="start1Toend1_270" type="conventional"  from="start1" to="end1" depart="4456.648666" />
    <trip id="start1Toend1_271" type="conventional"  from="start1" to="end1" depart="4458.762609" />
    <trip id="start1Toend1_272" type="conventional"  from="start1" to="end1" depart="4461.466637" />
    <trip id="start1Toend1_273" type="conventional"  from="start1" to="end1" depart="4463.079727" />
    <trip id="start1Toend1_274" type="conventional"  from="start1" to="end1" depart="4469.045953" />
    <trip id="start1Toend1_275" type="conventional"  from="start1" to="end1" depart="4473.412373" />