<?xml version="1.0" encoding="UTF-8"?>

<!-- generated on 04/15/20 15:47:43 by Eclipse SUMO netedit Version 1.5.0
<configuration xmlns:xsi="http://www.w3.org/2001/XMLSchema-instance" xsi:noNamespaceSchemaLocation="http://sumo.dlr.de/xsd/netconvertConfiguration.xsd">

    <input>
        <sumo-net-file value="C:\Users\Francmeister\Desktop\RL_With_SUMO\Nguyen-Dupuis\Nguyen.net.xml"/>
    </input>

    <output>
        <output-file value="C:\Users\Francmeister\Desktop\RL_With_SUMO\Nguyen-Dupuis\Nguyen.net.xml"/>
    </output>

    <processing>
        <geometry.min-radius.fix.railways value="false"/>
        <geometry.max-grade.fix value="false"/>
        <offset.disable-normalization value="true"/>
        <lefthand value="false"/>
    </processing>

    <junctions>
        <no-turnarounds value="true"/>
        <junctions.corner-detail value="5"/>
        <junctions.limit-turn-speed value="5.5"/>
        <rectangular-lane-cut value="false"/>
    </junctions>

    <pedestrian>
        <walkingareas value="false"/>
    </pedestrian>

    <netedit>
        <additional-files value="C:\Users\Francmeister\Desktop\RL_With_SUMO\Nguyen-Dupuis\abc.add.xml"/>
    </netedit>

    <report>
        <aggregate-warnings value="5"/>
    </report>

</configuration>
-->

<additional xmlns:xsi="http://www.w3.org/2001/XMLSchema-instance" xsi:noNamespaceSchemaLocation="http://sumo.dlr.de/xsd/additional_file.xsd">
    <e1Detector id="e1Detectorlink1" lane="link1_0" pos="4000.00" freq="900.00" file="e1Detector_link1_0_0.xml" friendlyPos="1"/>
    <e1Detector id="e1Detectorlink2" lane="link2_0" pos="30000.00" freq="900.00" file="e1Detector_link2_0_4.xml"/>
    <e1Detector id="e1Detectorlink3" lane="link3_0" pos="29800.00" freq="900.00" file="e1Detector_link3_0_1.xml"/>
    <e1Detector id="e1Detectorlink7" lane="link7_0" pos="4000.00" freq="900.00" file="e1Detector_link7_0_7.xml"/>
    <e1Detector id="e1Detectorlink8" lane="link8_0" pos="4000.00" freq="900.00" file="e1Detector_link8_0_8.xml"/>
</additional>