<?xml version="1.0" encoding="UTF-8"?>

<routes>


    <vType id="conventional" vClass="passenger" tau="5.5" minGap="7.5" carFollowModel="IDM" maxSpeed="40.00"/>
    <vType id="conventional_human" vClass="passenger" tau="5.5" minGap="7.5" carFollowModel="IDM" maxSpeed="40.00" color="52,128,235"/>
    <!--vType id="conventional_human" vClass="passenger" tau="3.5" minGap="5.5" carFollowModel="IDM" maxSpeed="28.00" color="52,128,235"/-->
    <vType id="non_merging" vClass="passenger" tau="5.5" minGap="7.5" carFollowModel="IDM" maxSpeed="40.00"/>
    <vType id="merging" vClass="passenger" carFollowModel="IDM" emergencyDecel="4.5" length="5" tau="0.1" maxSpeed="40.00" color="1,1,0" accel="10.3" decel="1.7" sigma="0.0" minGap="2.0"/>
    <!--vType id="connected" vClass="passenger" tau="2.5" minGap="5.5" carFollowModel="IDM" maxSpeed="28.00" lcCooperative="0.0" color="1,1,0" lcStrategic="1.0" accel="3.0" decel="1.5" emergencyDecel="4.5" lcSpeedGain="0.3" sigma="0.0" lcKeepRight="0.3"-->
    <vType id="connected" vClass="passenger" tau="5.5" minGap="7.5" carFollowModel="IDM" maxSpeed="40.00" emergencyDecel="4.5"/>
    <vType id="routeByDistance" maxSpeed="1"/>
    <vType id="connected_pCatchupFollower" vClass="passenger" carFollowModel="IDM" emergencyDecel="4.5" length="5" tau="0.1" maxSpeed="40.00" color="1,1,0" accel="10.3" decel="1.7" sigma="0.0" minGap="2.0"/>
    <vType id="connected_pCatchup" vClass="passenger" tau="0.1" carFollowModel="IDM" emergencyDecel="4.5" maxSpeed="40.00" color="0,0.8,0.3" accel="10.3" decel="1.7" sigma="0.0" minGap="2.0"/>
    <vType id="connected_pFollower" vClass="passenger" tau="0.1" carFollowModel="IDM" maxSpeed="40.00" color="1,1,0" accel="10.3" decel="1.7" sigma="0.0"  minGap="2.0" emergencyDecel="4.5"/>
    <vType id="connected_pLeader" vClass="passenger" length="5" tau="7.5" minGap="9.5" carFollowModel="IDM" maxSpeed="40.00" lcCooperative="0.0" color="1,1,0" lcStrategic="1.0" accel="2.0" decel="1.5" emergencyDecel="4.5" lcSpeedGain="0.3" sigma="0.0" lcKeepRight="0.3"/>
    

	
    <trip id="link1Tolink3_0" type="conventional"  from="link1" to="link3" depart="0.000000" />
    <trip id="link7Tolink3_0" type="conventional"  from="link7" to="link3" depart="0.000000" />
    <trip id="link7Tolink3_1" type="conventional"  from="link7" to="link3" depart="46.576243" />
    <trip id="link7Tolink3_2" type="conventional"  from="link7" to="link3" depart="68.479877" />
    <trip id="link7Tolink3_3" type="conventional"  from="link7" to="link3" depart="133.119943" />
    <trip id="link7Tolink3_4" type="conventional"  from="link7" to="link3" depart="148.127646" />
    <trip id="link1Tolink3_1" type="conventional"  from="link1" to="link3" depart="158.608708" />
    <trip id="link1Tolink3_2" type="conventional"  from="link1" to="link3" depart="201.651757" />
    <trip id="link1Tolink3_3" type="conventional"  from="link1" to="link3" depart="225.199580" />
    <trip id="link7Tolink3_5" type="conventional"  from="link7" to="link3" depart="225.449427" />
    <trip id="link7Tolink3_6" type="conventional"  from="link7" to="link3" depart="252.033353" />
    <trip id="link1Tolink3_4" type="conventional"  from="link1" to="link3" depart="268.862217" />
    <trip id="link1Tolink3_5" type="conventional"  from="link1" to="link3" depart="279.523170" />
    <trip id="link7Tolink3_7" type="conventional"  from="link7" to="link3" depart="346.884925" />
    <trip id="link7Tolink3_8" type="conventional"  from="link7" to="link3" depart="356.810315" />
    <trip id="link1Tolink3_6" type="conventional"  from="link1" to="link3" depart="371.716119" />
    <trip id="link1Tolink3_7" type="conventional"  from="link1" to="link3" depart="407.273669" />
    <trip id="link7Tolink3_9" type="conventional"  from="link7" to="link3" depart="457.258479" />
    <trip id="link1Tolink3_8" type="conventional"  from="link1" to="link3" depart="520.431709" />
    <trip id="link7Tolink3_10" type="conventional"  from="link7" to="link3" depart="548.639458" />
    <trip id="link1Tolink3_9" type="conventional"  from="link1" to="link3" depart="587.321122" />
    <trip id="link1Tolink3_10" type="conventional"  from="link1" to="link3" depart="734.328135" />
    <trip id="link7Tolink3_11" type="conventional"  from="link7" to="link3" depart="754.302165" />
    <trip id="link7Tolink3_12" type="conventional"  from="link7" to="link3" depart="786.118453" />
    <trip id="link7Tolink3_13" type="conventional"  from="link7" to="link3" depart="810.890433" />
    <trip id="link7Tolink3_14" type="conventional"  from="link7" to="link3" depart="817.337584" />
    <trip id="link1Tolink3_11" type="conventional"  from="link1" to="link3" depart="921.206147" />
    <trip id="link1Tolink3_12" type="conventional"  from="link1" to="link3" depart="932.422963" />
    <trip id="link7Tolink3_15" type="conventional"  from="link7" to="link3" depart="937.866652" />
    <trip id="link1Tolink3_13" type="conventional"  from="link1" to="link3" depart="957.057146" />
    <trip id="link1Tolink3_14" type="conventional"  from="link1" to="link3" depart="965.778303" />
    <trip id="link1Tolink3_15" type="conventional"  from="link1" to="link3" depart="1003.694437" />
    <trip id="link1Tolink3_16" type="conventional"  from="link1" to="link3" depart="1045.105784" />
    <trip id="link1Tolink3_17" type="conventional"  from="link1" to="link3" depart="1075.622649" />
    <trip id="link1Tolink3_18" type="conventional"  from="link1" to="link3" depart="1117.129357" />
    <trip id="link1Tolink3_19" type="conventional"  from="link1" to="link3" depart="1138.262396" />
    <trip id="link7Tolink3_16" type="conventional"  from="link7" to="link3" depart="1147.674435" />
    <trip id="link7Tolink3_17" type="conventional"  from="link7" to="link3" depart="1215.695742" />
    <trip id="link8Tolink3_0" type="conventional"  from="link8" to="link3" depart="1300.000000" />
    <trip id="link7Tolink3_18" type="conventional"  from="link7" to="link3" depart="1305.047368" />
    <trip id="link8Tolink3_1" type="conventional"  from="link8" to="link3" depart="1306.412830" />
    <trip id="link7Tolink3_19" type="conventional"  from="link7" to="link3" depart="1325.511500" />
    <trip id="link7Tolink3_20" type="conventional"  from="link7" to="link3" depart="1342.900879" />
    <trip id="link7Tolink3_21" type="conventional"  from="link7" to="link3" depart="1376.386473" />
    <trip id="link7Tolink3_22" type="conventional"  from="link7" to="link3" depart="1391.962669" />
    <trip id="link8Tolink3_2" type="conventional"  from="link8" to="link3" depart="1416.400437" />
    <trip id="link8Tolink3_3" type="conventional"  from="link8" to="link3" depart="1425.194974" />
    <trip id="link7Tolink3_23" type="conventional"  from="link7" to="link3" depart="1431.073605" />
    <trip id="link8Tolink3_4" type="conventional"  from="link8" to="link3" depart="1435.785386" />
    <trip id="link7Tolink3_24" type="conventional"  from="link7" to="link3" depart="1442.584946" />
    <trip id="link1Tolink3_20" type="conventional"  from="link1" to="link3" depart="1495.165943" />
    <trip id="link7Tolink3_25" type="conventional"  from="link7" to="link3" depart="1552.595839" />
    <trip id="link7Tolink3_26" type="conventional"  from="link7" to="link3" depart="1564.023771" />
    <trip id="link8Tolink3_5" type="conventional"  from="link8" to="link3" depart="1604.658479" />
    <trip id="link1Tolink3_21" type="conventional"  from="link1" to="link3" depart="1611.629889" />
    <trip id="link7Tolink3_27" type="conventional"  from="link7" to="link3" depart="1688.099193" />
    <trip id="link8Tolink3_6" type="conventional"  from="link8" to="link3" depart="1747.412705" />
    <trip id="link1Tolink3_22" type="conventional"  from="link1" to="link3" depart="1781.348705" />
    <trip id="link1Tolink3_23" type="conventional"  from="link1" to="link3" depart="1813.395165" />
    <trip id="link8Tolink3_7" type="conventional"  from="link8" to="link3" depart="1830.153287" />
    <trip id="link8Tolink3_8" type="conventional"  from="link8" to="link3" depart="1833.141566" />
    <trip id="link1Tolink3_24" type="conventional"  from="link1" to="link3" depart="1844.957952" />
    <trip id="link7Tolink3_28" type="conventional"  from="link7" to="link3" depart="1902.798307" />
    <trip id="link1Tolink3_25" type="conventional"  from="link1" to="link3" depart="1919.014359" />
    <trip id="link1Tolink3_26" type="conventional"  from="link1" to="link3" depart="1922.085016" />
    <trip id="link1Tolink3_27" type="conventional"  from="link1" to="link3" depart="1928.940180" />
    <trip id="link1Tolink3_28" type="conventional"  from="link1" to="link3" depart="1931.478171" />
    <trip id="link1Tolink3_29" type="conventional"  from="link1" to="link3" depart="1932.657701" />
    <trip id="link8Tolink3_9" type="conventional"  from="link8" to="link3" depart="1934.978961" />
    <trip id="link1Tolink3_30" type="conventional"  from="link1" to="link3" depart="1958.752116" />
    <trip id="link8Tolink3_10" type="conventional"  from="link8" to="link3" depart="1965.721975" />
    <trip id="link7Tolink3_29" type="conventional"  from="link7" to="link3" depart="1974.841983" />
    <trip id="link1Tolink3_31" type="conventional"  from="link1" to="link3" depart="1993.919364" />
    <trip id="link8Tolink3_11" type="conventional"  from="link8" to="link3" depart="2066.931955" />
    <trip id="link7Tolink3_30" type="conventional"  from="link7" to="link3" depart="2072.110245" />
    <trip id="link8Tolink3_12" type="conventional"  from="link8" to="link3" depart="2078.364570" />
    <trip id="link1Tolink3_32" type="conventional"  from="link1" to="link3" depart="2084.644060" />
    <trip id="link8Tolink3_13" type="conventional"  from="link8" to="link3" depart="2085.031104" />
    <trip id="link8Tolink3_14" type="conventional"  from="link8" to="link3" depart="2096.915195" />
    <trip id="link8Tolink3_15" type="conventional"  from="link8" to="link3" depart="2101.637886" />
    <trip id="link8Tolink3_16" type="conventional"  from="link8" to="link3" depart="2107.945147" />
    <trip id="link7Tolink3_31" type="conventional"  from="link7" to="link3" depart="2146.689988" />
    <trip id="link8Tolink3_17" type="conventional"  from="link8" to="link3" depart="2158.606613" />
    <trip id="link7Tolink3_32" type="conventional"  from="link7" to="link3" depart="2174.720182" />
    <trip id="link7Tolink3_33" type="conventional"  from="link7" to="link3" depart="2174.800970" />
    <trip id="link7Tolink3_34" type="conventional"  from="link7" to="link3" depart="2188.877649" />
    <trip id="link8Tolink3_18" type="conventional"  from="link8" to="link3" depart="2246.408447" />
    <trip id="link7Tolink3_35" type="conventional"  from="link7" to="link3" depart="2256.907130" />
    <trip id="link1Tolink3_33" type="conventional"  from="link1" to="link3" depart="2337.236998" />
    <trip id="link7Tolink3_36" type="conventional"  from="link7" to="link3" depart="2348.051427" />
    <trip id="link8Tolink3_19" type="conventional"  from="link8" to="link3" depart="2348.566673" />
    <trip id="link7Tolink3_37" type="conventional"  from="link7" to="link3" depart="2350.939866" />
    <trip id="link8Tolink3_20" type="conventional"  from="link8" to="link3" depart="2368.540882" />
    <trip id="link8Tolink3_21" type="conventional"  from="link8" to="link3" depart="2371.053470" />
    <trip id="link1Tolink3_34" type="conventional"  from="link1" to="link3" depart="2376.802091" />
    <trip id="link8Tolink3_22" type="conventional"  from="link8" to="link3" depart="2387.652824" />
    <trip id="link8Tolink3_23" type="conventional"  from="link8" to="link3" depart="2400.471854" />
    <trip id="link8Tolink3_24" type="conventional"  from="link8" to="link3" depart="2486.250949" />
    <trip id="link1Tolink3_35" type="conventional"  from="link1" to="link3" depart="2491.960417" />
    <trip id="link8Tolink3_25" type="conventional"  from="link8" to="link3" depart="2492.359633" />
    <trip id="link8Tolink3_26" type="conventional"  from="link8" to="link3" depart="2492.896905" />
    <trip id="link1Tolink3_36" type="conventional"  from="link1" to="link3" depart="2518.258760" />
    <trip id="link8Tolink3_27" type="conventional"  from="link8" to="link3" depart="2543.505613" />
    <trip id="link8Tolink3_28" type="conventional"  from="link8" to="link3" depart="2551.919979" />
    <trip id="link8Tolink3_29" type="conventional"  from="link8" to="link3" depart="2552.687989" />
    <trip id="link8Tolink3_30" type="conventional"  from="link8" to="link3" depart="2585.933882" />
    <trip id="link8Tolink3_31" type="conventional"  from="link8" to="link3" depart="2600.880964" />
    <trip id="link7Tolink3_38" type="conventional"  from="link7" to="link3" depart="2601.912907" />
    <trip id="link1Tolink3_37" type="conventional"  from="link1" to="link3" depart="2609.171948" />
    <trip id="link8Tolink3_32" type="conventional"  from="link8" to="link3" depart="2624.644657" />
    <trip id="link8Tolink3_33" type="conventional"  from="link8" to="link3" depart="2635.176275" />
    <trip id="link7Tolink3_39" type="conventional"  from="link7" to="link3" depart="2662.948949" />
    <trip id="link7Tolink3_40" type="conventional"  from="link7" to="link3" depart="2671.447481" />
    <trip id="link8Tolink3_34" type="conventional"  from="link8" to="link3" depart="2680.582625" />
    <trip id="link7Tolink3_41" type="conventional"  from="link7" to="link3" depart="2702.465195" />
    <trip id="link8Tolink3_35" type="conventional"  from="link8" to="link3" depart="2734.195335" />
    <trip id="link8Tolink3_36" type="conventional"  from="link8" to="link3" depart="2739.886958" />
    <trip id="link7Tolink3_42" type="conventional"  from="link7" to="link3" depart="2763.931011" />
    <trip id="link8Tolink3_37" type="conventional"  from="link8" to="link3" depart="2791.951704" />
    <trip id="link7Tolink3_43" type="conventional"  from="link7" to="link3" depart="2813.087590" />
    <trip id="link7Tolink3_44" type="conventional"  from="link7" to="link3" depart="2822.014234" />
    <trip id="link8Tolink3_38" type="conventional"  from="link8" to="link3" depart="2828.312003" />
    <trip id="link8Tolink3_39" type="conventional"  from="link8" to="link3" depart="2845.862842" />
    <trip id="link7Tolink3_45" type="conventional"  from="link7" to="link3" depart="2864.804963" />
    <trip id="link7Tolink3_46" type="conventional"  from="link7" to="link3" depart="2899.029614" />
    <trip id="link1Tolink3_38" type="conventional"  from="link1" to="link3" depart="2905.557062" />
    <trip id="link8Tolink3_40" type="conventional"  from="link8" to="link3" depart="2907.882194" />
    <trip id="link7Tolink3_47" type="conventional"  from="link7" to="link3" depart="2916.962567" />
    <trip id="link8Tolink3_41" type="conventional"  from="link8" to="link3" depart="2947.277420" />
    <trip id="link1Tolink3_39" type="conventional"  from="link1" to="link3" depart="2996.192799" />
    <trip id="link8Tolink3_42" type="conventional"  from="link8" to="link3" depart="3014.928319" />
    <trip id="link1Tolink3_40" type="conventional"  from="link1" to="link3" depart="3028.783197" />
    <trip id="link1Tolink3_41" type="conventional"  from="link1" to="link3" depart="3071.589128" />
    <trip id="link8Tolink3_43" type="conventional"  from="link8" to="link3" depart="3096.900974" />
    <trip id="link8Tolink3_44" type="conventional"  from="link8" to="link3" depart="3098.040771" />
    <trip id="link8Tolink3_45" type="conventional"  from="link8" to="link3" depart="3136.210486" />
    <trip id="link7Tolink3_48" type="conventional"  from="link7" to="link3" depart="3139.540728" />
    <trip id="link8Tolink3_46" type="conventional"  from="link8" to="link3" depart="3155.167109" />
    <trip id="link8Tolink3_47" type="conventional"  from="link8" to="link3" depart="3168.860763" />
    <trip id="link1Tolink3_42" type="conventional"  from="link1" to="link3" depart="3171.928609" />
    <trip id="link8Tolink3_48" type="conventional"  from="link8" to="link3" depart="3197.434459" />
    <trip id="link1Tolink3_43" type="conventional"  from="link1" to="link3" depart="3204.681180" />
    <trip id="link8Tolink3_49" type="conventional"  from="link8" to="link3" depart="3210.602037" />
    <trip id="link7Tolink3_49" type="conventional"  from="link7" to="link3" depart="3246.049486" />
    <trip id="link1Tolink3_44" type="conventional"  from="link1" to="link3" depart="3248.243375" />
    <trip id="link8Tolink3_50" type="conventional"  from="link8" to="link3" depart="3255.662308" />
    <trip id="link8Tolink3_51" type="conventional"  from="link8" to="link3" depart="3269.772567" />
    <trip id="link8Tolink3_52" type="conventional"  from="link8" to="link3" depart="3274.342445" />
    <trip id="link8Tolink3_53" type="conventional"  from="link8" to="link3" depart="3283.499649" />
    <trip id="link8Tolink3_54" type="conventional"  from="link8" to="link3" depart="3284.235398" />
    <trip id="link8Tolink3_55" type="conventional"  from="link8" to="link3" depart="3302.985306" />
    <trip id="link8Tolink3_56" type="conventional"  from="link8" to="link3" depart="3303.400334" />
    <trip id="link1Tolink3_45" type="conventional"  from="link1" to="link3" depart="3318.313788" />
    <trip id="link7Tolink3_50" type="conventional"  from="link7" to="link3" depart="3343.476459" />
    <trip id="link8Tolink3_57" type="conventional"  from="link8" to="link3" depart="3347.165607" />
    <trip id="link8Tolink3_58" type="conventional"  from="link8" to="link3" depart="3410.702597" />
    <trip id="link8Tolink3_59" type="conventional"  from="link8" to="link3" depart="3416.426934" />
    <trip id="link8Tolink3_60" type="conventional"  from="link8" to="link3" depart="3418.952119" />
    <trip id="link7Tolink3_51" type="conventional"  from="link7" to="link3" depart="3444.872136" />
    <trip id="link8Tolink3_61" type="conventional"  from="link8" to="link3" depart="3474.146802" />
    <trip id="link7Tolink3_52" type="conventional"  from="link7" to="link3" depart="3514.283558" />
    <trip id="link7Tolink3_53" type="conventional"  from="link7" to="link3" depart="3514.363539" />
    <trip id="link7Tolink3_54" type="conventional"  from="link7" to="link3" depart="3519.127858" />
    <trip id="link8Tolink3_62" type="conventional"  from="link8" to="link3" depart="3531.309743" />
    <trip id="link8Tolink3_63" type="conventional"  from="link8" to="link3" depart="3569.562279" />
    <trip id="link1Tolink3_46" type="conventional"  from="link1" to="link3" depart="3582.064271" />
    <trip id="link1Tolink3_47" type="conventional"  from="link1" to="link3" depart="3618.472323" />
    <trip id="link1Tolink3_48" type="conventional"  from="link1" to="link3" depart="3628.411268" />
    <trip id="link1Tolink3_49" type="conventional"  from="link1" to="link3" depart="3662.962572" />
    <trip id="link7Tolink3_55" type="conventional"  from="link7" to="link3" depart="3698.593175" />
    <trip id="link8Tolink3_64" type="conventional"  from="link8" to="link3" depart="3706.008441" />
    <trip id="link8Tolink3_65" type="conventional"  from="link8" to="link3" depart="3757.039233" />
    <trip id="link8Tolink3_66" type="conventional"  from="link8" to="link3" depart="3764.945519" />
    <trip id="link7Tolink3_56" type="conventional"  from="link7" to="link3" depart="3768.355308" />
    <trip id="link8Tolink3_67" type="conventional"  from="link8" to="link3" depart="3776.638225" />
    <trip id="link8Tolink3_68" type="conventional"  from="link8" to="link3" depart="3805.576735" />
    <trip id="link7Tolink3_57" type="conventional"  from="link7" to="link3" depart="3813.907588" />
    <trip id="link8Tolink3_69" type="conventional"  from="link8" to="link3" depart="3821.116792" />
    <trip id="link7Tolink3_58" type="conventional"  from="link7" to="link3" depart="3826.379387" />
    <trip id="link1Tolink3_50" type="conventional"  from="link1" to="link3" depart="3853.153866" />
    <trip id="link7Tolink3_59" type="conventional"  from="link7" to="link3" depart="3871.335431" />
    <trip id="link8Tolink3_70" type="conventional"  from="link8" to="link3" depart="3873.245049" />
    <trip id="link8Tolink3_71" type="conventional"  from="link8" to="link3" depart="3902.344854" />
    <trip id="link7Tolink3_60" type="conventional"  from="link7" to="link3" depart="3909.076955" />
    <trip id="link8Tolink3_72" type="conventional"  from="link8" to="link3" depart="3993.716205" />
    <trip id="link7Tolink3_61" type="conventional"  from="link7" to="link3" depart="4006.147911" />
    <trip id="link7Tolink3_62" type="conventional"  from="link7" to="link3" depart="4023.439145" />
    <trip id="link8Tolink3_73" type="conventional"  from="link8" to="link3" depart="4060.756207" />
    <trip id="link1Tolink3_51" type="conventional"  from="link1" to="link3" depart="4077.750812" />
    <trip id="link8Tolink3_74" type="conventional"  from="link8" to="link3" depart="4083.654238" />
    <trip id="link7Tolink3_63" type="conventional"  from="link7" to="link3" depart="4103.456302" />
    <trip id="link7Tolink3_64" type="conventional"  from="link7" to="link3" depart="4123.197414" />
    <trip id="link8Tolink3_75" type="conventional"  from="link8" to="link3" depart="4133.280005" />
    <trip id="link8Tolink3_76" type="conventional"  from="link8" to="link3" depart="4177.250168" />
    <trip id="link8Tolink3_77" type="conventional"  from="link8" to="link3" depart="4214.791588" />
    <trip id="link8Tolink3_78" type="conventional"  from="link8" to="link3" depart="4224.755993" />
    <trip id="link8Tolink3_79" type="conventional"  from="link8" to="link3" depart="4229.289960" />
    <trip id="link7Tolink3_65" type="conventional"  from="link7" to="link3" depart="4233.150783" />
    <trip id="link8Tolink3_80" type="conventional"  from="link8" to="link3" depart="4264.613722" />
    <trip id="link1Tolink3_52" type="conventional"  from="link1" to="link3" depart="4269.951722" />
    <trip id="link8Tolink3_81" type="conventional"  from="link8" to="link3" depart="4302.019965" />
    <trip id="link1Tolink3_53" type="conventional"  from="link1" to="link3" depart="4366.585950" />
    <trip id="link7Tolink3_66" type="conventional"  from="link7" to="link3" depart="4366.815684" />
    <trip id="link8Tolink3_82" type="conventional"  from="link8" to="link3" depart="4386.200566" />
    <trip id="link8Tolink3_83" type="conventional"  from="link8" to="link3" depart="4394.241680" />
    <trip id="link8Tolink3_84" type="conventional"  from="link8" to="link3" depart="4396.672252" />
    <trip id="link1Tolink3_54" type="conventional"  from="link1" to="link3" depart="4417.184614" />
    <trip id="link1Tolink3_55" type="conventional"  from="link1" to="link3" depart="4422.040479" />
    <trip id="link1Tolink3_56" type="conventional"  from="link1" to="link3" depart="4430.614519" />
    <trip id="link7Tolink3_67" type="conventional"  from="link7" to="link3" depart="4453.531486" />
    <trip id="link8Tolink3_85" type="conventional"  from="link8" to="link3" depart="4474.214249" />
    <trip id="link1Tolink3_57" type="conventional"  from="link1" to="link3" depart="4512.413136" />
    <trip id="link7Tolink3_68" type="conventional"  from="link7" to="link3" depart="4519.695069" />
    <trip id="link7Tolink3_69" type="conventional"  from="link7" to="link3" depart="4542.289833" />
    <trip id="link7Tolink3_70" type="conventional"  from="link7" to="link3" depart="4546.168664" />
    <trip id="link7Tolink3_71" type="conventional"  from="link7" to="link3" depart="4564.382044" />
    <trip id="link7Tolink3_72" type="conventional"  from="link7" to="link3" depart="4564.994772" />
    <trip id="link8Tolink3_86" type="conventional"  from="link8" to="link3" depart="4582.216688" />
    <trip id="link1Tolink3_58" type="conventional"  from="link1" to="link3" depart="4586.001227" />
    <trip id="link8Tolink3_87" type="conventional"  from="link8" to="link3" depart="4603.582300" />
    <trip id="link8Tolink3_88" type="conventional"  from="link8" to="link3" depart="4610.406531" />
    <trip id="link1Tolink3_59" type="conventional"  from="link1" to="link3" depart="4656.637011" />
    <trip id="link7Tolink3_73" type="conventional"  from="link7" to="link3" depart="4685.427977" />
    <trip id="link8Tolink3_89" type="conventional"  from="link8" to="link3" depart="4688.489478" />
    <trip id="link1Tolink3_60" type="conventional"  from="link1" to="link3" depart="4690.624543" />
    <trip id="link7Tolink3_74" type="conventional"  from="link7" to="link3" depart="4709.216346" />
    <trip id="link7Tolink3_75" type="conventional"  from="link7" to="link3" depart="4737.129706" />
    <trip id="link7Tolink3_76" type="conventional"  from="link7" to="link3" depart="4744.571139" />
    <trip id="link8Tolink3_90" type="conventional"  from="link8" to="link3" depart="4753.871734" />
    <trip id="link8Tolink3_91" type="conventional"  from="link8" to="link3" depart="4754.789839" />
    <trip id="link8Tolink3_92" type="conventional"  from="link8" to="link3" depart="4780.334482" />
    <trip id="link1Tolink3_61" type="conventional"  from="link1" to="link3" depart="4821.712278" />
    <trip id="link7Tolink3_77" type="conventional"  from="link7" to="link3" depart="4825.829929" />
    <trip id="link7Tolink3_78" type="conventional"  from="link7" to="link3" depart="4828.595954" />
    <trip id="link7Tolink3_79" type="conventional"  from="link7" to="link3" depart="4886.723675" />
    <trip id="link7Tolink3_80" type="conventional"  from="link7" to="link3" depart="4909.679265" />
    <trip id="link8Tolink3_93" type="conventional"  from="link8" to="link3" depart="4910.065046" />
    <trip id="link8Tolink3_94" type="conventional"  from="link8" to="link3" depart="4910.560375" />
    <trip id="link1Tolink3_62" type="conventional"  from="link1" to="link3" depart="4922.423753" />
    <trip id="link8Tolink3_95" type="conventional"  from="link8" to="link3" depart="4924.031267" />
    <trip id="link8Tolink3_96" type="conventional"  from="link8" to="link3" depart="4958.342261" />
    <trip id="link8Tolink3_97" type="conventional"  from="link8" to="link3" depart="5007.415391" />
    <trip id="link8Tolink3_98" type="conventional"  from="link8" to="link3" depart="5013.037302" />
    <trip id="link8Tolink3_99" type="conventional"  from="link8" to="link3" depart="5056.119120" />
    <trip id="link1Tolink3_63" type="conventional"  from="link1" to="link3" depart="5083.959438" />
    <trip id="link1Tolink3_64" type="conventional"  from="link1" to="link3" depart="5139.203225" />
    <trip id="link1Tolink3_65" type="conventional"  from="link1" to="link3" depart="5149.834638" />
    <trip id="link7Tolink3_81" type="conventional"  from="link7" to="link3" depart="5171.468986" />
    <trip id="link8Tolink3_100" type="conventional"  from="link8" to="link3" depart="5173.223559" />
    <trip id="link1Tolink3_66" type="conventional"  from="link1" to="link3" depart="5208.697539" />
    <trip id="link7Tolink3_82" type="conventional"  from="link7" to="link3" depart="5217.532417" />
    <trip id="link7Tolink3_83" type="conventional"  from="link7" to="link3" depart="5224.123321" />
    <trip id="link8Tolink3_101" type="conventional"  from="link8" to="link3" depart="5231.414593" />
    <trip id="link7Tolink3_84" type="conventional"  from="link7" to="link3" depart="5264.594875" />
    <trip id="link8Tolink3_102" type="conventional"  from="link8" to="link3" depart="5280.234814" />
    <trip id="link7Tolink3_85" type="conventional"  from="link7" to="link3" depart="5280.713945" />
    <trip id="link1Tolink3_67" type="conventional"  from="link1" to="link3" depart="5285.401439" />
    <trip id="link8Tolink3_103" type="conventional"  from="link8" to="link3" depart="5327.864384" />
    <trip id="link7Tolink3_86" type="conventional"  from="link7" to="link3" depart="5341.602763" />
    <trip id="link7Tolink3_87" type="conventional"  from="link7" to="link3" depart="5345.179488" />
    <trip id="link1Tolink3_68" type="conventional"  from="link1" to="link3" depart="5377.529609" />
    <trip id="link8Tolink3_104" type="conventional"  from="link8" to="link3" depart="5392.899755" />
    <trip id="link1Tolink3_69" type="conventional"  from="link1" to="link3" depart="5396.626082" />
    <trip id="link1Tolink3_70" type="conventional"  from="link1" to="link3" depart="5423.473186" />
    <trip id="link1Tolink3_71" type="conventional"  from="link1" to="link3" depart="5432.813406" />
    <trip id="link7Tolink3_88" type="conventional"  from="link7" to="link3" depart="5486.438609" />
    <trip id="link8Tolink3_105" type="conventional"  from="link8" to="link3" depart="5529.968027" />
    <trip id="link8Tolink3_106" type="conventional"  from="link8" to="link3" depart="5546.527638" />
    <trip id="link1Tolink3_72" type="conventional"  from="link1" to="link3" depart="5578.093563" />
    <trip id="link8Tolink3_107" type="conventional"  from="link8" to="link3" depart="5585.436042" />
    <trip id="link1Tolink3_73" type="conventional"  from="link1" to="link3" depart="5600.799868" />
    <trip id="link7Tolink3_89" type="conventional"  from="link7" to="link3" depart="5635.798247" />
    <trip id="link8Tolink3_108" type="conventional"  from="link8" to="link3" depart="5671.924789" />
    <trip id="link8Tolink3_109" type="conventional"  from="link8" to="link3" depart="5724.541677" />
    <trip id="link1Tolink3_74" type="conventional"  from="link1" to="link3" depart="5727.468661" />
    <trip id="link8Tolink3_110" type="conventional"  from="link8" to="link3" depart="5729.043139" />
    <trip id="link8Tolink3_111" type="conventional"  from="link8" to="link3" depart="5771.863314" />
    <trip id="link8Tolink3_112" type="conventional"  from="link8" to="link3" depart="5809.474355" />
    <trip id="link7Tolink3_90" type="conventional"  from="link7" to="link3" depart="5815.525464" />
    <trip id="link7Tolink3_91" type="conventional"  from="link7" to="link3" depart="5826.876577" />